units(length='cm', time='s', quantity='mol', act_energy='kcal/mol')

ideal_gas(name='gas',
          elements="H D T C Ci O Oi N Ne Ar He Si S F Cl Br I X",
          species="""N2          Ne          CH3CF3(1)   O2(2)
                     H2O(3)      CH4(4)      H(5)        O(6)
                     OH(7)       H2(8)       Ar(9)       HO2(10)
                     He(11)      H2O2(12)    CO(13)      CO2(14)
                     HCO(15)     C(T)(16)    CH(17)      CH3(18)
                     CH2O(19)    HCCO(20)    C2H(21)     C2H2(22)
                     H2CC(23)    CH2(S)(24)  CH3OH(25)   CH3O(26)
                     CH2CO(27)   C2H3(28)    C2H4(29)    C2H6(30)
                     C2H5(31)    CH2OH(32)   CH3CO(33)   CH2CHO(34)
                     CH3CHO(35)  F(36)       HF(37)      CH3F(38)
                     CHF(39)     CH2F2(40)   CHF3(41)    CF2(42)
                     CF4(43)     CF3(44)     CH2F(45)    CHFO(46)
                     CF3O(47)    CF2O(48)    CFO(49)     C2HF4(50)
                     CHFCF2(51)  CH2CHF(52)  CH2CF2(53)  C2HF(54)
                     C2H2F2(55)  CF2CF2(56)  C2H4F(57)   C2H4F(58)
                     C2H3F2(59)  C2H3F2(60)  C2H3F2(61)  C2H2F3(62)
                     C2H2F3(63)  C2HF4(64)   CH2CF(65)   C2H2F(66)
                     C2HF2(67)   CF2CH(68)   CH2CFO(69)  C2HF5(70)
                     CHF2(71)    CF3CCH(72)  C2H2F3(73)  FO2(74)
                     FO(75)      C2H2F2(76)  C3H2F4(77)  C3H2F4(78)
                     O2(79)      S(80)       S(81)       C2HF3(82)
                     S(83)       C2HF2O(84)  C1OO1(85)   CF2O2(86)
                     OF(87)      S(88)       S(89)       CHF2O(90)
                     CHF2O(91)   CHF3O(92)   C2F4O2(93)  CF2O2(94)
                     C2F4O(95)   CH2O2(96)   CHO2(97)    C3H2F4(98)
                     C3H3F4(99)  S(100)      S(101)      S(102)
                     CH2O2(103)  CHO2(104)   CFO2(105)   S(106)
                     S(107)      C2F(108)    C2HF(109)   CF3O2(110)
                     S(111)      S(112)      C2HFO(113)  S(114)
                     C2H2O(115)  C2H4(116)   CHFO2(117)  CO2(118)
                     CO3(119)    S(120)      S(121)      S(122)
                     C3HF3(123)  S(124)      S(125)      S(126)
                     C3HF3(127)  S(128)      S(129)      C3HF3(130)
                     S(131)      S(132)      S(133)      S(134)
                     S(135)      CHO3(136)   CFO2(137)   CO3(138)
                     C2O3(139)   S(140)      C3HF3(141)  S(142)
                     S(143)      S(144)      S(145)      C2F5(146)
                     S(147)      C2FO2(148)  C2H2O(149)  C2FO2(150)
                     S(151)      C3H3F(152)  C#CCF(153)  C4HF5(154)
                     S(155)      S(156)      C4HF5(157)  C3H3(158)
                     C3H4F(159)  C3H4F(160)  C#CC(161)   C3H4F(162)
                     S(163)      C3H4F(164)  C3H3F(165)  C3H4F(166)
                     C3H3F(167)  C3H3F(168)  C3H4F(169)  C3H4(170)
                     C3H3(171)   S(172)      S(173)      S(174)
                     C3H4(175)   S(176)      S(177)      S(178)
                     S(179)      S(180)      S(181)      S(182)
                     S(183)      S(184)      C3H3F(185)  C3H3F(186)
                     C2O3(187)   S(188)      CF(189)     C2H3F(190)
                     C2H3O(191)  C2H3F(192)  S(193)      S(194)
                     CH3O2(195)  C3H6F(196)  C3H6F(197)  C4H6(198)
                     S(199)      S(200)      S(201)      S(202)
                     CH2FO(203)  S(204)      C3H5(205)   C2HO2(206)
                     S(207)      S(208)      S(209)      C3H5(210)
                     CHO2(211)   CHO3(212)   C2O3(213)   S(214)
                     S(215)      C3H5(216)   C4H6(217)   C4H6(218)
                     C4H6(219)   CH2O3(220)  S(221)      S(222)
                     S(223)      C3H4F(224)  C3H4(225)   CFO3(226)
                     C3H3(227)   S(228)      C2O2(229)   C3H4(230)
                     C4H6(231)   CH3O2(232)  C4H6(233)   C#CCC(234)
                     C4H6(235)   C4H6(236)   C3H4(237)   S(238)
                     C3H4(239)   C4H7(240)   C4H6(241)   S(242)
                     S(243)      S(244)      C4H6(245)   C4H6(246)
                     C2H2(247)   CH2(248)    CHF-2(249)  CF2-2(250)
                     S(316)      CH2FO(339)  CHFO2(345)  C2HFO(365)
                     C2HF3(472)  S(474)      CHFO2(482)  C2HF(704)
                     S(1388)""",
          reactions='all',
          transport='Mix',
          initial_state=state(temperature=300.0, pressure=OneAtm))

#-------------------------------------------------------------------------------
# Element data
#-------------------------------------------------------------------------------

element(symbol='Ci', atomic_mass=13.003)
element(symbol='D', atomic_mass=2.014)
element(symbol='Oi', atomic_mass=17.999)
element(symbol='T', atomic_mass=3.016)
element(symbol='X', atomic_mass=195.083)
#-------------------------------------------------------------------------------
# Species data
#-------------------------------------------------------------------------------

species(name='N2',
        atoms='N:2',
        thermo=(NASA([200.00, 1000.00],
                     [ 3.53101000E+00, -1.23661000E-04, -5.02999000E-07,
                       2.43531000E-09, -1.40881000E-12, -1.04698000E+03,
                       2.96747000E+00]),
                NASA([1000.00, 6000.00],
                     [ 2.95258000E+00,  1.39690000E-03, -4.92632000E-07,
                       7.86010000E-11, -4.60755000E-15, -9.23949000E+02,
                       5.87189000E+00])),
        transport=gas_transport(geom='linear',
                                diam=3.621,
                                well_depth=97.53,
                                polar=1.76,
                                rot_relax=4.0))

species(name='Ne',
        atoms='Ne:1',
        thermo=(NASA([200.00, 1000.00],
                     [ 2.50000000E+00,  0.00000000E+00,  0.00000000E+00,
                       0.00000000E+00,  0.00000000E+00, -7.45375000E+02,
                       3.35532000E+00]),
                NASA([1000.00, 6000.00],
                     [ 2.50000000E+00,  0.00000000E+00,  0.00000000E+00,
                       0.00000000E+00,  0.00000000E+00, -7.45375000E+02,
                       3.35532000E+00])),
        transport=gas_transport(geom='atom',
                                diam=3.758,
                                well_depth=148.6))

species(name='CH3CF3(1)',
        atoms='C:2 F:3 H:3',
        thermo=(NASA([10.00, 539.22],
                     [ 3.92157000E+00,  4.75571000E-03,  9.14975000E-05,
                      -1.88599000E-07,  1.16734000E-10, -9.22845000E+04,
                       8.23158000E+00]),
                NASA([539.22, 3000.00],
                     [ 3.23895000E+00,  2.69640000E-02, -1.79736000E-05,
                       5.70921000E-09, -6.91212000E-13, -9.24601000E+04,
                       8.79206000E+00])),
        transport=gas_transport(geom='nonlinear',
                                diam=4.911,
                                well_depth=289.1,
                                dipole=2.3))

species(name='O2(2)',
        atoms='O:2',
        thermo=(NASA([100.00, 1074.55],
                     [ 3.53732243E+00, -1.21571654E-03,  5.31620277E-06,
                      -4.89446463E-09,  1.45846270E-12, -1.03858849E+03,
                       4.68368181E+00]),
                NASA([1074.55, 5000.00],
                     [ 3.15382078E+00,  1.67804376E-03, -7.69974267E-07,
                       1.51275469E-10, -1.08782420E-14, -1.04081727E+03,
                       6.16755850E+00])),
        transport=gas_transport(geom='linear',
                                diam=3.467,
                                well_depth=106.7))

species(name='H2O(3)',
        atoms='H:2 O:1',
        thermo=(NASA([100.00, 1130.24],
                     [ 4.05763610E+00, -7.87938872E-04,  2.90878480E-06,
                      -1.47520039E-09,  2.12847508E-13, -3.02815866E+04,
                      -3.11365027E-01]),
                NASA([1130.24, 5000.00],
                     [ 2.84324866E+00,  2.75108838E-03, -7.81033120E-07,
                       1.07244016E-10, -5.79395309E-15, -2.99586120E+04,
                       5.91043012E+00])),
        transport=gas_transport(geom='nonlinear',
                                diam=2.641,
                                well_depth=809.102,
                                polar=1.76,
                                rot_relax=4.0))

species(name='CH4(4)',
        atoms='C:1 H:4',
        thermo=(NASA([100.00, 1084.12],
                     [ 4.20541641E+00, -5.35558709E-03,  2.51123719E-05,
                      -2.13763401E-08,  5.97526176E-12, -1.01619434E+04,
                      -9.21283497E-01]),
                NASA([1084.12, 5000.00],
                     [ 9.08258982E-01,  1.14540969E-02, -4.57174454E-06,
                       8.29193125E-10, -5.66316086E-14, -9.71997148E+03,
                       1.39931326E+01])),
        transport=gas_transport(geom='nonlinear',
                                diam=3.746,
                                well_depth=141.4,
                                polar=2.6,
                                rot_relax=13.0))

species(name='H(5)',
        atoms='H:1',
        thermo=(NASA([100.00, 4101.03],
                     [ 2.50000000E+00,  1.56839909E-13, -2.12371896E-16,
                       9.39504946E-20, -1.27958334E-23,  2.54742178E+04,
                      -4.44972896E-01]),
                NASA([4101.03, 5000.00],
                     [ 2.49999696E+00,  2.82830243E-09, -9.83483362E-13,
                       1.51619205E-16, -8.74287095E-21,  2.54742204E+04,
                      -4.44953778E-01])),
        transport=gas_transport(geom='atom',
                                diam=2.05,
                                well_depth=145.0))

species(name='O(6)',
        atoms='O:1',
        thermo=(NASA([100.00, 4101.03],
                     [ 2.50000000E+00,  1.56839909E-13, -2.12371896E-16,
                       9.39504946E-20, -1.27958334E-23,  2.92302441E+04,
                       5.12616427E+00]),
                NASA([4101.03, 5000.00],
                     [ 2.49999696E+00,  2.82830243E-09, -9.83483362E-13,
                       1.51619205E-16, -8.74287095E-21,  2.92302467E+04,
                       5.12618339E+00])),
        transport=gas_transport(geom='atom',
                                diam=2.75,
                                well_depth=80.0))

species(name='OH(7)',
        atoms='H:1 O:1',
        thermo=(NASA([100.00, 1145.75],
                     [ 3.51456802E+00,  2.92776204E-05, -5.32164197E-07,
                       1.01949126E-09, -3.85945553E-13,  3.41425420E+03,
                       2.10434892E+00]),
                NASA([1145.75, 5000.00],
                     [ 3.07193997E+00,  6.04015429E-04, -1.39781437E-08,
                      -2.13446439E-11,  2.48065934E-15,  3.57938669E+03,
                       4.57799915E+00])),
        transport=gas_transport(geom='linear',
                                diam=2.75,
                                well_depth=80.0))

species(name='H2(8)',
        atoms='H:2',
        thermo=(NASA([100.00, 1959.10],
                     [ 3.43536477E+00,  2.12704667E-04, -2.78612148E-07,
                       3.40257051E-10, -7.76006950E-14, -1.03135988E+03,
                      -3.90841983E+00]),
                NASA([1959.10, 5000.00],
                     [ 2.78809738E+00,  5.87729871E-04,  1.58968784E-07,
                      -5.52655469E-11,  4.34250082E-15, -5.96103883E+02,
                       1.13138407E-01])),
        transport=gas_transport(geom='linear',
                                diam=2.833,
                                well_depth=59.7))

species(name='Ar(9)',
        atoms='Ar:1',
        thermo=(NASA([200.00, 1000.00],
                     [ 2.50000000E+00,  0.00000000E+00,  0.00000000E+00,
                       0.00000000E+00,  0.00000000E+00, -7.45375000E+02,
                       4.37967000E+00]),
                NASA([1000.00, 6000.00],
                     [ 2.50000000E+00,  0.00000000E+00,  0.00000000E+00,
                       0.00000000E+00,  0.00000000E+00, -7.45375000E+02,
                       4.37967000E+00])),
        transport=gas_transport(geom='atom',
                                diam=3.33,
                                well_depth=136.501))

species(name='HO2(10)',
        atoms='H:1 O:2',
        thermo=(NASA([200.00, 1000.00],
                     [ 4.30180000E+00, -4.74912000E-03,  2.11583000E-05,
                      -2.42764000E-08,  9.29225000E-12,  2.64018000E+02,
                       3.71666000E+00]),
                NASA([1000.00, 5000.00],
                     [ 4.17229000E+00,  1.88118000E-03, -3.46277000E-07,
                       1.94658000E-11,  1.76257000E-16,  3.10207000E+01,
                       2.95768000E+00])),
        transport=gas_transport(geom='nonlinear',
                                diam=3.458,
                                well_depth=107.4,
                                rot_relax=1.0))

species(name='He(11)',
        atoms='He:1',
        thermo=(NASA([200.00, 1000.00],
                     [ 2.50000000E+00,  0.00000000E+00,  0.00000000E+00,
                       0.00000000E+00,  0.00000000E+00, -7.45375000E+02,
                       9.28724000E-01]),
                NASA([1000.00, 6000.00],
                     [ 2.50000000E+00,  0.00000000E+00,  0.00000000E+00,
                       0.00000000E+00,  0.00000000E+00, -7.45375000E+02,
                       9.28724000E-01])),
        transport=gas_transport(geom='atom',
                                diam=2.576,
                                well_depth=10.2))

species(name='H2O2(12)',
        atoms='H:2 O:2',
        thermo=(NASA([200.00, 1000.00],
                     [ 4.31515000E+00, -8.47391000E-04,  1.76404000E-05,
                      -2.26763000E-08,  9.08950000E-12, -1.77067000E+04,
                       3.27373000E+00]),
                NASA([1000.00, 6000.00],
                     [ 4.57977000E+00,  4.05326000E-03, -1.29845000E-06,
                       1.98211000E-10, -1.13969000E-14, -1.80072000E+04,
                       6.64971000E-01])),
        transport=gas_transport(geom='nonlinear',
                                diam=4.196,
                                well_depth=289.3))

species(name='CO(13)',
        atoms='C:1 O:1',
        thermo=(NASA([100.00, 1571.63],
                     [ 3.56838028E+00, -8.52128494E-04,  2.48918555E-06,
                      -1.56331751E-09,  3.13597403E-13, -1.42842550E+04,
                       3.57912067E+00]),
                NASA([1571.63, 5000.00],
                     [ 2.91305532E+00,  1.64659465E-03, -6.88623306E-07,
                       1.21039169E-10, -7.84031902E-15, -1.41808786E+04,
                       6.71052375E+00])),
        transport=gas_transport(geom='linear',
                                diam=3.69,
                                well_depth=91.7,
                                polar=1.76,
                                rot_relax=4.0))

species(name='CO2(14)',
        atoms='C:1 O:2',
        thermo=(NASA([200.00, 1000.00],
                     [ 2.35681000E+00,  8.98413000E-03, -7.12206000E-06,
                       2.45730000E-09, -1.42885000E-13, -4.83720000E+04,
                       9.90090000E+00]),
                NASA([1000.00, 6000.00],
                     [ 4.63651000E+00,  2.74146000E-03, -9.95898000E-07,
                       1.60387000E-10, -9.16199000E-15, -4.90249000E+04,
                      -1.93490000E+00])),
        transport=gas_transport(geom='linear',
                                diam=3.941,
                                well_depth=195.201))

species(name='HCO(15)',
        atoms='C:1 H:1 O:1',
        thermo=(NASA([200.00, 1000.00],
                     [ 4.23755000E+00, -3.32075000E-03,  1.40030000E-05,
                      -1.34240000E-08,  4.37416000E-12,  3.87241000E+03,
                       3.30835000E+00]),
                NASA([1000.00, 6000.00],
                     [ 3.92002000E+00,  2.52279000E-03, -6.71004000E-07,
                       1.05616000E-10, -7.43798000E-15,  3.65343000E+03,
                       3.58077000E+00])),
        transport=gas_transport(geom='nonlinear',
                                diam=3.59,
                                well_depth=498.002))

species(name='C(T)(16)',
        atoms='C:1',
        thermo=(NASA([100.00, 4101.03],
                     [ 2.50000000E+00,  1.56839909E-13, -2.12371896E-16,
                       9.39504946E-20, -1.27958334E-23,  8.54745247E+04,
                       3.65978421E+00]),
                NASA([4101.03, 5000.00],
                     [ 2.49999696E+00,  2.82830243E-09, -9.83483362E-13,
                       1.51619205E-16, -8.74287095E-21,  8.54745273E+04,
                       3.65980333E+00])),
        transport=gas_transport(geom='atom',
                                diam=3.298,
                                well_depth=71.4))

species(name='CH(17)',
        atoms='C:1 H:1',
        thermo=(NASA([200.00, 1000.00],
                     [ 3.48976000E+00,  3.24322000E-04, -1.68998000E-06,
                       3.16284000E-09, -1.40618000E-12,  7.06126000E+04,
                       2.08428000E+00]),
                NASA([1000.00, 6000.00],
                     [ 2.52094000E+00,  1.76536000E-03, -4.61477000E-07,
                       5.92897000E-11, -3.34745000E-15,  7.09468000E+04,
                       7.40518000E+00])),
        transport=gas_transport(geom='linear',
                                diam=2.75,
                                well_depth=80.0))

species(name='CH3(18)',
        atoms='C:1 H:3',
        thermo=(NASA([200.00, 1000.00],
                     [ 3.65718000E+00,  2.12660000E-03,  5.45839000E-06,
                      -6.61810000E-09,  2.46571000E-12,  1.64227000E+04,
                       1.67354000E+00]),
                NASA([1000.00, 6000.00],
                     [ 2.97812000E+00,  5.79785000E-03, -1.97558000E-06,
                       3.07298000E-10, -1.79174000E-14,  1.65095000E+04,
                       4.72248000E+00])),
        transport=gas_transport(geom='nonlinear',
                                diam=3.8,
                                well_depth=144.001))

species(name='CH2O(19)',
        atoms='C:1 H:2 O:1',
        thermo=(NASA([200.00, 1000.00],
                     [ 4.79372000E+00, -9.90833000E-03,  3.73220000E-05,
                      -3.79285000E-08,  1.31773000E-11, -1.43792000E+04,
                       6.02798000E-01]),
                NASA([1000.00, 6000.00],
                     [ 3.16953000E+00,  6.19321000E-03, -2.25056000E-06,
                       3.65976000E-10, -2.20149000E-14, -1.45487000E+04,
                       6.04208000E+00])),
        transport=gas_transport(geom='nonlinear',
                                diam=3.59,
                                well_depth=498.002,
                                rot_relax=2.0))

species(name='HCCO(20)',
        atoms='C:2 H:1 O:1',
        thermo=(NASA([200.00, 1000.00],
                     [ 1.87608000E+00,  2.21205000E-02, -3.58869000E-05,
                       3.05403000E-08, -1.01281000E-11,  2.01634000E+04,
                       1.36968000E+01]),
                NASA([1000.00, 6000.00],
                     [ 5.91479000E+00,  3.71409000E-03, -1.30137000E-06,
                       2.06473000E-10, -1.21477000E-14,  1.93596000E+04,
                      -5.50567000E+00])),
        transport=gas_transport(geom='nonlinear',
                                diam=2.5,
                                well_depth=150.001,
                                rot_relax=1.0))

species(name='C2H(21)',
        atoms='C:2 H:1',
        thermo=(NASA([200.00, 1000.00],
                     [ 2.89868000E+00,  1.32988000E-02, -2.80733000E-05,
                       2.89485000E-08, -1.07502000E-11,  6.70616000E+04,
                       6.18548000E+00]),
                NASA([1000.00, 6000.00],
                     [ 3.66270000E+00,  3.82492000E-03, -1.36633000E-06,
                       2.13455000E-10, -1.23217000E-14,  6.71684000E+04,
                       3.92206000E+00])),
        transport=gas_transport(geom='linear',
                                diam=4.1,
                                well_depth=209.001,
                                rot_relax=2.5))

species(name='C2H2(22)',
        atoms='C:2 H:2',
        thermo=(NASA([200.00, 1000.00],
                     [ 8.08680000E-01,  2.33616000E-02, -3.55172000E-05,
                       2.80153000E-08, -8.50075000E-12,  2.64290000E+04,
                       1.39397000E+01]),
                NASA([1000.00, 6000.00],
                     [ 4.65878000E+00,  4.88397000E-03, -1.60829000E-06,
                       2.46975000E-10, -1.38606000E-14,  2.57594000E+04,
                      -3.99838000E+00])),
        transport=gas_transport(geom='linear',
                                diam=4.1,
                                well_depth=209.001,
                                rot_relax=2.5))

species(name='H2CC(23)',
        atoms='C:2 H:2',
        thermo=(NASA([100.00, 953.68],
                     [ 3.94828988E+00, -1.81635716E-03,  2.07118603E-05,
                      -2.36681865E-08,  8.45421356E-12,  7.22068404E+04,
                       5.31554449E+00]),
                NASA([953.68, 5000.00],
                     [ 4.20278596E+00,  4.73411675E-03, -1.57298050E-06,
                       2.85889352E-10, -2.08629832E-14,  7.18118740E+04,
                       2.28356148E+00])),
        transport=gas_transport(geom='nonlinear',
                                diam=4.485,
                                well_depth=298.358))

species(name='CH2(S)(24)',
        atoms='C:1 H:2',
        thermo=(NASA([100.00, 1104.60],
                     [ 4.01192389E+00, -1.54978849E-04,  3.26297864E-06,
                      -2.40421870E-09,  5.69496931E-13,  4.58676802E+04,
                       5.33200458E-01]),
                NASA([1104.60, 5000.00],
                     [ 3.14983394E+00,  2.96674246E-03, -9.76055759E-07,
                       1.54115258E-10, -9.50337929E-15,  4.60581390E+04,
                       4.77807629E+00])),
        transport=gas_transport(geom='nonlinear',
                                diam=3.8,
                                well_depth=144.001))

species(name='CH3OH(25)',
        atoms='C:1 H:4 O:1',
        thermo=(NASA([200.00, 1000.00],
                     [ 5.65851000E+00, -1.62983000E-02,  6.91938000E-05,
                      -7.58373000E-08,  2.80428000E-11, -2.56120000E+04,
                      -8.97331000E-01]),
                NASA([1000.00, 6000.00],
                     [ 3.52727000E+00,  1.03179000E-02, -3.62893000E-06,
                       5.77448000E-10, -3.42183000E-14, -2.60029000E+04,
                       5.16759000E+00])),
        transport=gas_transport(geom='nonlinear',
                                diam=3.626,
                                well_depth=481.802,
                                rot_relax=1.0))

species(name='CH3O(26)',
        atoms='C:1 H:3 O:1',
        thermo=(NASA([200.00, 1000.00],
                     [ 3.71181000E+00, -2.80463000E-03,  3.76551000E-05,
                      -4.73072000E-08,  1.86588000E-11,  1.29570000E+03,
                       6.57241000E+00]),
                NASA([1000.00, 6000.00],
                     [ 4.75779000E+00,  7.44142000E-03, -2.69705000E-06,
                       4.38091000E-10, -2.63537000E-14,  3.78112000E+02,
                      -1.96680000E+00])),
        transport=gas_transport(geom='nonlinear',
                                diam=3.69,
                                well_depth=417.002,
                                dipole=1.7,
                                rot_relax=2.0))

species(name='CH2CO(27)',
        atoms='C:2 H:2 O:1',
        thermo=(NASA([200.00, 1000.00],
                     [ 2.13241000E+00,  1.81319000E-02, -1.74093000E-05,
                       9.35336000E-09, -2.01725000E-12, -7.14809000E+03,
                       1.33808000E+01]),
                NASA([1000.00, 6000.00],
                     [ 5.75871000E+00,  6.35124000E-03, -2.25955000E-06,
                       3.62322000E-10, -2.15856000E-14, -8.08533000E+03,
                      -4.96490000E+00])),
        transport=gas_transport(geom='nonlinear',
                                diam=3.97,
                                well_depth=436.001,
                                rot_relax=2.0))

species(name='C2H3(28)',
        atoms='C:2 H:3',
        thermo=(NASA([200.00, 1000.00],
                     [ 3.36378000E+00,  2.65766000E-04,  2.79621000E-05,
                      -3.72987000E-08,  1.51590000E-11,  3.44750000E+04,
                       7.91510000E+00]),
                NASA([1000.00, 6000.00],
                     [ 4.15027000E+00,  7.54021000E-03, -2.62998000E-06,
                       4.15974000E-10, -2.45408000E-14,  3.38566000E+04,
                       1.72812000E+00])),
        transport=gas_transport(geom='nonlinear',
                                diam=4.1,
                                well_depth=209.001,
                                rot_relax=1.0))

species(name='C2H4(29)',
        atoms='C:2 H:4',
        thermo=(NASA([200.00, 1000.00],
                     [ 3.95920000E+00, -7.57051000E-03,  5.70990000E-05,
                      -6.91588000E-08,  2.69884000E-11,  5.08978000E+03,
                       4.09730000E+00]),
                NASA([1000.00, 6000.00],
                     [ 3.99183000E+00,  1.04834000E-02, -3.71721000E-06,
                       5.94628000E-10, -3.53630000E-14,  4.26866000E+03,
                      -2.69082000E-01])),
        transport=gas_transport(geom='nonlinear',
                                diam=3.971,
                                well_depth=280.801,
                                rot_relax=1.5))

species(name='C2H6(30)',
        atoms='C:2 H:6',
        thermo=(NASA([200.00, 1000.00],
                     [ 4.29143000E+00, -5.50155000E-03,  5.99438000E-05,
                      -7.08466000E-08,  2.68686000E-11, -1.15222000E+04,
                       2.66679000E+00]),
                NASA([1000.00, 6000.00],
                     [ 4.04666000E+00,  1.53539000E-02, -5.47039000E-06,
                       8.77827000E-10, -5.23168000E-14, -1.24473000E+04,
                      -9.68698000E-01])),
        transport=gas_transport(geom='nonlinear',
                                diam=4.302,
                                well_depth=252.301,
                                rot_relax=1.5))

species(name='C2H5(31)',
        atoms='C:2 H:5',
        thermo=(NASA([200.00, 1000.00],
                     [ 4.24186000E+00, -3.56905000E-03,  4.82667000E-05,
                      -5.85401000E-08,  2.25805000E-11,  1.29690000E+04,
                       4.44704000E+00]),
                NASA([1000.00, 6000.00],
                     [ 4.32196000E+00,  1.23931000E-02, -4.39681000E-06,
                       7.03520000E-10, -4.18435000E-14,  1.21759000E+04,
                       1.71104000E-01])),
        transport=gas_transport(geom='nonlinear',
                                diam=4.302,
                                well_depth=252.301,
                                rot_relax=1.5))

species(name='CH2OH(32)',
        atoms='C:1 H:3 O:1',
        thermo=(NASA([200.00, 1000.00],
                     [ 4.47834000E+00, -1.35070000E-03,  2.78485000E-05,
                      -3.64869000E-08,  1.47907000E-11, -3.50073000E+03,
                       3.30913000E+00]),
                NASA([1000.00, 6000.00],
                     [ 5.09314000E+00,  5.94761000E-03, -2.06497000E-06,
                       3.23008000E-10, -1.88126000E-14, -4.03410000E+03,
                      -1.84691000E+00])),
        transport=gas_transport(geom='nonlinear',
                                diam=3.69,
                                well_depth=417.002,
                                dipole=1.7,
                                rot_relax=2.0))

species(name='CH3CO(33)',
        atoms='C:2 H:3 O:1',
        thermo=(NASA([200.00, 1000.00],
                     [ 4.03587000E+00,  8.77295000E-04,  3.07100000E-05,
                      -3.92476000E-08,  1.52969000E-11, -2.68207000E+03,
                       7.86177000E+00]),
                NASA([1000.00, 6000.00],
                     [ 5.31372000E+00,  9.17378000E-03, -3.32204000E-06,
                       5.39475000E-10, -3.24524000E-14, -3.64504000E+03,
                      -1.67576000E+00])),
        transport=gas_transport(geom='nonlinear',
                                diam=3.97,
                                well_depth=436.001,
                                rot_relax=2.0))

species(name='CH2CHO(34)',
        atoms='C:2 H:3 O:1',
        thermo=(NASA([200.00, 1000.00],
                     [ 2.66874000E+00,  9.62330000E-03,  1.60617000E-05,
                      -2.87682000E-08,  1.25030000E-11,  2.19438000E+02,
                       1.25694000E+01]),
                NASA([1000.00, 6000.00],
                     [ 5.91637000E+00,  8.84650000E-03, -3.14955000E-06,
                       5.05413000E-10, -3.01305000E-14, -1.04780000E+03,
                      -6.10650000E+00])),
        transport=gas_transport(geom='nonlinear',
                                diam=3.97,
                                well_depth=436.001,
                                rot_relax=2.0))

species(name='CH3CHO(35)',
        atoms='C:2 H:4 O:1',
        thermo=(NASA([200.00, 1000.00],
                     [ 4.72946000E+00, -3.19329000E-03,  4.75349000E-05,
                      -5.74586000E-08,  2.19311000E-11, -2.15729000E+04,