units(length='cm', time='s', quantity='mol', act_energy='kcal/mol')

ideal_gas(name='gas',
          elements="H D T C Ci O Oi N Ne Ar He Si S F Cl Br I X",
          species="""N2          Ne          C2H3F3(1)   O2(2)
                     H2O(3)      OH(4)       CH4(5)      H(6)
                     O(7)        H2(8)       HO2(11)     H2O2(12)
                     CO(13)      CO2(14)     HCO(15)     CH2(T)(18)
                     CH2O(20)    HCCO(21)    CH2(S)(25)  CH2CO(28)
                     F(37)       HF(38)      CH2F2(41)   CHF3(42)
                     CF2(43)     CF3(45)     CH2F(46)    CHFO(47)
                     CF2O(49)    CFO(51)     C2HF4(54)   CHFCF2(55)
                     CH2CF2(57)  C2HF(58)    C2H2F2(59)  C2H3F2(64)
                     C2H3F2(65)  C2H3F2(66)  C2H2F3(67)  C2H2F3(68)
                     C2HF2(72)   CF2CH(73)   CH2CFO(79)  C2HF5(81)
                     CHF2(82)    S(126)      FO2(127)    S(128)
                     O2(144)     S(145)      S(147)      S(148)
                     S(153)      C2F(161)    C2HF(162)   C2HFO(196)
                     S(203)      S(206)      S(217)      S(220)
                     S(233)      S(234)      S(238)      S(314)
                     S(315)      S(511)      S(528)      S(529)
                     S(553)      S(576)      S(597)      S(1016)
                     S(1271)     S(1518)     S(1564)     CFO2(1638)
                     S(1798)     S(1874)     S(2732)     S(2733)
                     S(2752)     S(2818)     S(2864)     CHO2(2867)
                     S(2879)     S(3251)     S(3398)     S(4009)
                     CHO2(4259)  S(4297)     S(4298)     S(4311)
                     S(4312)     S(4342)     S(5611)     CFO3(5998)
                     S(6017)     S(6168)     S(6415)     S(6896)
                     CHO3(7038)  C2F5(9470)  S(9479)""",
          reactions='all',
          transport='Mix',
          initial_state=state(temperature=300.0, pressure=OneAtm))

#-------------------------------------------------------------------------------
# Element data
#-------------------------------------------------------------------------------

element(symbol='Ci', atomic_mass=13.003)
element(symbol='D', atomic_mass=2.014)
element(symbol='Oi', atomic_mass=17.999)
element(symbol='T', atomic_mass=3.016)
element(symbol='X', atomic_mass=195.083)
#-------------------------------------------------------------------------------
# Species data
#-------------------------------------------------------------------------------

species(name='N2',
        atoms='N:2',
        thermo=(NASA([200.00, 1000.00],
                     [ 3.53101000E+00, -1.23661000E-04, -5.02999000E-07,
                       2.43531000E-09, -1.40881000E-12, -1.04698000E+03,
                       2.96747000E+00]),
                NASA([1000.00, 6000.00],
                     [ 2.95258000E+00,  1.39690000E-03, -4.92632000E-07,
                       7.86010000E-11, -4.60755000E-15, -9.23949000E+02,
                       5.87189000E+00])),
        transport=gas_transport(geom='linear',
                                diam=3.621,
                                well_depth=97.53,
                                polar=1.76,
                                rot_relax=4.0))

species(name='Ne',
        atoms='Ne:1',
        thermo=(NASA([200.00, 1000.00],
                     [ 2.50000000E+00,  0.00000000E+00,  0.00000000E+00,
                       0.00000000E+00,  0.00000000E+00, -7.45375000E+02,
                       3.35532000E+00]),
                NASA([1000.00, 6000.00],
                     [ 2.50000000E+00,  0.00000000E+00,  0.00000000E+00,
                       0.00000000E+00,  0.00000000E+00, -7.45375000E+02,
                       3.35532000E+00])),
        transport=gas_transport(geom='atom',
                                diam=3.758,
                                well_depth=148.6))

species(name='C2H3F3(1)',
        atoms='C:2 F:3 H:3',
        thermo=(NASA([10.00, 616.25],
                     [ 3.85089000E+00,  1.25534000E-02,  3.70918000E-05,
                      -7.49617000E-08,  4.07443000E-11, -8.21609000E+04,
                       1.05553000E+01]),
                NASA([616.25, 3000.00],
                     [ 3.03560000E+00,  2.61873000E-02, -1.63995000E-05,
                       4.87265000E-09, -5.54431000E-13, -8.22188000E+04,
                       1.28087000E+01])),
        transport=gas_transport(geom='nonlinear',
                                diam=4.798,
                                well_depth=323.4,
                                dipole=2.3))

species(name='O2(2)',
        atoms='O:2',
        thermo=(NASA([100.00, 1074.56],
                     [ 3.53732118E+00, -1.21570202E-03,  5.31615358E-06,
                      -4.89440364E-09,  1.45843807E-12, -1.03858843E+03,
                       4.68368633E+00]),
                NASA([1074.56, 5000.00],
                     [ 3.15382774E+00,  1.67803224E-03, -7.69967755E-07,
                       1.51273954E-10, -1.08781177E-14, -1.04082031E+03,
                       6.16751905E+00])),
        transport=gas_transport(geom='linear',
                                diam=3.467,
                                well_depth=106.7))

species(name='H2O(3)',
        atoms='H:2 O:1',
        thermo=(NASA([100.00, 1130.24],
                     [ 4.05763582E+00, -7.87935662E-04,  2.90877429E-06,
                      -1.47518785E-09,  2.12842652E-13, -3.02815866E+04,
                      -3.11363998E-01]),
                NASA([1130.24, 5000.00],
                     [ 2.84325062E+00,  2.75108520E-03, -7.81031348E-07,
                       1.07243608E-10, -5.79391987E-15, -2.99586128E+04,
                       5.91041898E+00])),
        transport=gas_transport(geom='nonlinear',
                                diam=2.641,
                                well_depth=809.102,
                                polar=1.76,
                                rot_relax=4.0))

species(name='OH(4)',
        atoms='H:1 O:1',
        thermo=(NASA([100.00, 1145.75],
                     [ 3.51456804E+00,  2.92773617E-05, -5.32163358E-07,
                       1.01949027E-09, -3.85945173E-13,  3.41425420E+03,
                       2.10434883E+00]),
                NASA([1145.75, 5000.00],
                     [ 3.07193980E+00,  6.04015701E-04, -1.39782948E-08,
                      -2.13446092E-11,  2.48065653E-15,  3.57938677E+03,
                       4.57800011E+00])),
        transport=gas_transport(geom='linear',
                                diam=2.75,
                                well_depth=80.0))

species(name='CH4(5)',
        atoms='C:1 H:4',
        thermo=(NASA([100.00, 1084.12],
                     [ 4.20541378E+00, -5.35555685E-03,  2.51122700E-05,
                      -2.13762147E-08,  5.97521149E-12, -1.01619432E+04,
                      -9.21274032E-01]),
                NASA([1084.12, 5000.00],
                     [ 9.08274117E-01,  1.14540720E-02, -4.57173047E-06,
                       8.29189859E-10, -5.66313411E-14, -9.71997811E+03,
                       1.39930469E+01])),
        transport=gas_transport(geom='nonlinear',
                                diam=3.746,
                                well_depth=141.4,
                                polar=2.6,
                                rot_relax=13.0))

species(name='H(6)',
        atoms='H:1',
        thermo=(NASA([100.00, 4996.86],
                     [ 2.50000000E+00,  4.30732087E-14, -5.28912510E-17,
                       2.10457488E-20, -2.57139738E-24,  2.54742178E+04,
                      -4.44972896E-01]),
                NASA([4996.86, 5000.00],
                     [-4.86862231E+01,  1.90728012E-02,  8.49269033E-07,
                      -9.90485659E-10,  9.34419177E-14,  1.03971294E+05,
                       3.56208045E+02])),
        transport=gas_transport(geom='atom',
                                diam=2.05,
                                well_depth=145.0))

species(name='O(7)',
        atoms='O:1',
        thermo=(NASA([100.00, 4996.86],
                     [ 2.50000000E+00,  4.30732087E-14, -5.28912510E-17,
                       2.10457488E-20, -2.57139738E-24,  2.92302441E+04,
                       5.12616427E+00]),
                NASA([4996.86, 5000.00],
                     [-4.86862231E+01,  1.90728012E-02,  8.49269033E-07,
                      -9.90485659E-10,  9.34419177E-14,  1.07727320E+05,
                       3.61779183E+02])),
        transport=gas_transport(geom='atom',
                                diam=2.75,
                                well_depth=80.0))

species(name='H2(8)',
        atoms='H:2',
        thermo=(NASA([100.00, 1959.07],
                     [ 3.43536403E+00,  2.12711126E-04, -2.78626796E-07,
                       3.40268542E-10, -7.76035403E-14, -1.03135984E+03,
                      -3.90841698E+00]),
                NASA([1959.07, 5000.00],
                     [ 2.78817514E+00,  5.87628848E-04,  1.59016078E-07,
                      -5.52750390E-11,  4.34319267E-15, -5.96149762E+02,
                       1.12677478E-01])),
        transport=gas_transport(geom='linear',
                                diam=2.833,
                                well_depth=59.7))

species(name='HO2(11)',
        atoms='H:1 O:2',
        thermo=(NASA([200.00, 1000.00],
                     [ 4.30180000E+00, -4.74912000E-03,  2.11583000E-05,
                      -2.42764000E-08,  9.29225000E-12,  2.64018000E+02,
                       3.71666000E+00]),
                NASA([1000.00, 5000.00],
                     [ 4.17229000E+00,  1.88118000E-03, -3.46277000E-07,
                       1.94658000E-11,  1.76257000E-16,  3.10207000E+01,
                       2.95768000E+00])),
        transport=gas_transport(geom='nonlinear',
                                diam=3.458,
                                well_depth=107.4,
                                rot_relax=1.0))

species(name='H2O2(12)',
        atoms='H:2 O:2',
        thermo=(NASA([200.00, 1000.00],
                     [ 4.31515000E+00, -8.47391000E-04,  1.76404000E-05,
                      -2.26763000E-08,  9.08950000E-12, -1.77067000E+04,
                       3.27373000E+00]),
                NASA([1000.00, 6000.00],
                     [ 4.57977000E+00,  4.05326000E-03, -1.29845000E-06,
                       1.98211000E-10, -1.13969000E-14, -1.80072000E+04,
                       6.64971000E-01])),
        transport=gas_transport(geom='nonlinear',
                                diam=4.196,
                                well_depth=289.3))

species(name='CO(13)',
        atoms='C:1 O:1',
        thermo=(NASA([100.00, 1571.65],
                     [ 3.56837933E+00, -8.52119359E-04,  2.48916154E-06,
                      -1.56329526E-09,  3.13590826E-13, -1.42842549E+04,
                       3.57912422E+00]),
                NASA([1571.65, 5000.00],
                     [ 2.91308532E+00,  1.64655185E-03, -6.88601689E-07,
                       1.21034554E-10, -7.83996529E-15, -1.41808944E+04,
                       6.71034902E+00])),
        transport=gas_transport(geom='linear',
                                diam=3.69,
                                well_depth=91.7,
                                polar=1.76,
                                rot_relax=4.0))

species(name='CO2(14)',
        atoms='C:1 O:2',
        thermo=(NASA([200.00, 1000.00],
                     [ 2.35681000E+00,  8.98413000E-03, -7.12206000E-06,
                       2.45730000E-09, -1.42885000E-13, -4.83720000E+04,
                       9.90090000E+00]),
                NASA([1000.00, 6000.00],
                     [ 4.63651000E+00,  2.74146000E-03, -9.95898000E-07,
                       1.60387000E-10, -9.16199000E-15, -4.90249000E+04,
                      -1.93490000E+00])),
        transport=gas_transport(geom='linear',
                                diam=3.941,
                                well_depth=195.201))

species(name='HCO(15)',
        atoms='C:1 H:1 O:1',
        thermo=(NASA([200.00, 1000.00],
                     [ 4.23755000E+00, -3.32075000E-03,  1.40030000E-05,
                      -1.34240000E-08,  4.37416000E-12,  3.87241000E+03,
                       3.30835000E+00]),
                NASA([1000.00, 6000.00],
                     [ 3.92002000E+00,  2.52279000E-03, -6.71004000E-07,
                       1.05616000E-10, -7.43798000E-15,  3.65343000E+03,
                       3.58077000E+00])),
        transport=gas_transport(geom='nonlinear',
                                diam=3.59,
                                well_depth=498.0))

species(name='CH2(T)(18)',
        atoms='C:1 H:2',
        thermo=(NASA([100.00, 1104.61],
                     [ 4.01192385E+00, -1.54978509E-04,  3.26297772E-06,
                      -2.40421779E-09,  5.69496640E-13,  4.58676802E+04,
                       5.33200586E-01]),
                NASA([1104.61, 5000.00],
                     [ 3.14983377E+00,  2.96674275E-03, -9.76055939E-07,
                       1.54115302E-10, -9.50338306E-15,  4.60581391E+04,
                       4.77807718E+00])),
        transport=gas_transport(geom='linear',
                                diam=3.8,
                                well_depth=144.0))

species(name='CH2O(20)',
        atoms='C:1 H:2 O:1',
        thermo=(NASA([200.00, 1000.00],
                     [ 4.79372000E+00, -9.90833000E-03,  3.73220000E-05,
                      -3.79285000E-08,  1.31773000E-11, -1.43792000E+04,
                       6.02798000E-01]),
                NASA([1000.00, 6000.00],
                     [ 3.16953000E+00,  6.19321000E-03, -2.25056000E-06,
                       3.65976000E-10, -2.20149000E-14, -1.45487000E+04,
                       6.04208000E+00])),
        transport=gas_transport(geom='nonlinear',
                                diam=3.59,
                                well_depth=498.0,
                                rot_relax=2.0))

species(name='HCCO(21)',
        atoms='C:2 H:1 O:1',
        thermo=(NASA([200.00, 1000.00],
                     [ 1.87608000E+00,  2.21205000E-02, -3.58869000E-05,
                       3.05403000E-08, -1.01281000E-11,  2.01634000E+04,
                       1.36968000E+01]),
                NASA([1000.00, 6000.00],
                     [ 5.91479000E+00,  3.71409000E-03, -1.30137000E-06,
                       2.06473000E-10, -1.21477000E-14,  1.93596000E+04,
                      -5.50567000E+00])),
        transport=gas_transport(geom='nonlinear',
                                diam=2.5,
                                well_depth=150.0,
                                rot_relax=1.0))

species(name='CH2(S)(25)',
        atoms='C:1 H:2',
        thermo=(NASA([100.00, 1442.38],
                     [ 4.10264141E+00, -1.44066067E-03,  5.45062471E-06,
                      -3.57995655E-09,  7.56172539E-13,  5.04005786E+04,
                      -4.11757144E-01]),
                NASA([1442.38, 5000.00],
                     [ 2.62652132E+00,  3.94755936E-03, -1.49920508E-06,
                       2.54531240E-10, -1.62949664E-14,  5.06917293E+04,
                       6.78351705E+00])),
        transport=gas_transport(geom='linear',
                                diam=3.8,
                                well_depth=144.0))

species(name='CH2CO(28)',
        atoms='C:2 H:2 O:1',
        thermo=(NASA([200.00, 1000.00],
                     [ 2.13241000E+00,  1.81319000E-02, -1.74093000E-05,
                       9.35336000E-09, -2.01725000E-12, -7.14809000E+03,
                       1.33808000E+01]),
                NASA([1000.00, 6000.00],
                     [ 5.75871000E+00,  6.35124000E-03, -2.25955000E-06,
                       3.62322000E-10, -2.15856000E-14, -8.08533000E+03,
                      -4.96490000E+00])),
        transport=gas_transport(geom='nonlinear',
                                diam=3.97,
                                well_depth=436.0,
                                rot_relax=2.0))

species(name='F(37)',
        atoms='F:1',
        thermo=(NASA([298.00, 1400.00],
                     [ 2.90371000E+00, -6.35296000E-04,  2.64735000E-07,
                       7.69063000E-11, -5.45254000E-14,  8.67227000E+03,
                       2.70828000E+00]),
                NASA([1400.00, 3000.00],
                     [ 2.65117000E+00, -1.40130000E-04,  5.19236000E-08,
                      -8.84954000E-12,  5.90280000E-16,  8.75829000E+03,
                       4.07857000E+00])),
        transport=gas_transport(geom='atom',
                                diam=2.75,
                                well_depth=80.0))

species(name='HF(38)',
        atoms='F:1 H:1',
        thermo=(NASA([298.00, 1250.00],
                     [ 3.43657000E+00,  4.86021000E-04, -1.25240000E-06,
                       1.36475000E-09, -4.09574000E-13, -3.38001000E+04,
                       1.20682000E+00]),
                NASA([1250.00, 3000.00],
                     [ 2.78130000E+00,  1.03959000E-03, -2.41735000E-07,
                       2.68416000E-11, -1.09766000E-15, -3.35042000E+04,
                       5.01970000E+00])),
        transport=gas_transport(geom='linear',
                                diam=3.148,
                                well_depth=330.001,
                                dipole=1.92,
                                polar=2.46,
                                rot_relax=1.0))

species(name='CH2F2(41)',
        atoms='C:1 F:2 H:2',
        thermo=(NASA([10.00, 788.98],
                     [ 4.06909000E+00, -4.54455000E-03,  4.03365000E-05,
                      -4.87809000E-08,  1.90230000E-11, -5.55551000E+04,
                       6.40435000E+00]),
                NASA([788.98, 3000.00],
                     [ 1.30655000E+00,  1.54345000E-02, -9.00408000E-06,
                       2.50681000E-09, -2.68973000E-13, -5.53051000E+04,
                       1.78990000E+01])),
        transport=gas_transport(geom='nonlinear',
                                diam=4.123,
                                well_depth=262.0,
                                dipole=1.8))

species(name='CHF3(42)',
        atoms='C:1 F:3 H:1',
        thermo=(NASA([10.00, 615.11],
                     [ 4.06655000E+00, -5.69699000E-03,  7.11567000E-05,
                      -1.16193000E-07,  6.06504000E-11, -8.51503000E+04,
                       7.48265000E+00]),
                NASA([615.11, 3000.00],
                     [ 2.45498000E+00,  1.63704000E-02, -1.09138000E-05,
                       3.38161000E-09, -3.95687000E-13, -8.51713000E+04,
                       1.26925000E+01])),
        transport=gas_transport(geom='nonlinear',
                                diam=4.123,
                                well_depth=262.0,
                                dipole=1.8))

species(name='CF2(43)',
        atoms='C:1 F:2',
        thermo=(NASA([298.00, 1300.00],
                     [ 2.28591000E+00,  1.07608000E-02, -1.05382000E-05,
                       4.89881000E-09, -8.86384000E-13, -2.43407000E+04,
                       1.31348000E+01]),
                NASA([1300.00, 3000.00],
                     [ 5.33121000E+00,  1.97748000E-03, -9.60248000E-07,
                       2.10704000E-10, -1.59540000E-14, -2.51909000E+04,
                      -2.56367000E+00])),
        transport=gas_transport(geom='nonlinear',
                                diam=3.977,
                                well_depth=108.0))

species(name='CF3(45)',
        atoms='C:1 F:3',
        thermo=(NASA([10.00, 570.23],
                     [ 4.05587000E+00, -5.49380000E-03,  7.30062000E-05,
                      -1.34908000E-07,  7.85700000E-11, -5.81130000E+04,
                       8.13986000E+00]),
                NASA([570.23, 3000.00],
                     [ 3.53924000E+00,  1.18582000E-02, -8.75006000E-06,
                       2.89362000E-09, -3.54041000E-13, -5.82773000E+04,
                       8.38507000E+00])),
        transport=gas_transport(geom='nonlinear',
                                diam=4.32,
                                well_depth=121.0))

species(name='CH2F(46)',
        atoms='C:1 F:1 H:2',
        thermo=(NASA([10.00, 594.37],
                     [ 4.03338000E+00, -2.62849000E-03,  2.74227000E-05,
                      -3.89096000E-08,  1.85259000E-11, -5.11982000E+03,
                       5.20374000E+00]),
                NASA([594.37, 3000.00],
                     [ 2.59024000E+00,  8.57266000E-03, -4.60348000E-06,
                       1.22743000E-09, -1.29255000E-13, -4.97457000E+03,
                       1.11940000E+01])),
        transport=gas_transport(geom='nonlinear',
                                diam=4.123,
                                well_depth=262.0,
                                dipole=1.8))

species(name='CHFO(47)',
        atoms='C:1 F:1 H:1 O:1',
        thermo=(NASA([10.00, 745.32],
                     [ 4.05425000E+00, -3.75329000E-03,  3.18277000E-05,
                      -4.07297000E-08,  1.68956000E-11, -4.74230000E+04,
                       6.56837000E+00]),
                NASA([745.32, 3000.00],
                     [ 2.27714000E+00,  1.04751000E-02, -6.24845000E-06,
                       1.77292000E-09, -1.93455000E-13, -4.72884000E+04,
                       1.37455000E+01])),
        transport=gas_transport(geom='nonlinear',
                                diam=4.906,
                                well_depth=350.5))

species(name='CF2O(49)',
        atoms='C:1 F:2 O:1',
        thermo=(NASA([10.00, 584.63],
                     [ 4.06775000E+00, -6.14966000E-03,  6.73615000E-05,
                      -1.17623000E-07,  6.56735000E-11, -7.44006000E+04,
                       7.68563000E+00]),
                NASA([584.63, 3000.00],
                     [ 3.15981000E+00,  1.16963000E-02, -8.27581000E-06,
                       2.66621000E-09, -3.20585000E-13, -7.44933000E+04,
                       9.87819000E+00])),
        transport=gas_transport(geom='nonlinear',
                                diam=4.906,
                                well_depth=350.5))

species(name='CFO(51)',
        atoms='C:1 F:1 O:1',
        thermo=(NASA([10.00, 668.19],
                     [ 4.02994000E+00, -2.08576000E-03,  2.20825000E-05,
                      -3.30628000E-08,  1.58410000E-11, -2.28950000E+04,
                       6.85532000E+00]),
                NASA([668.19, 3000.00],
                     [ 3.39014000E+00,  5.54951000E-03, -3.60000000E-06,
                       1.08417000E-09, -1.23809000E-13, -2.28945000E+04,
                       9.04838000E+00])),
        transport=gas_transport(geom='nonlinear',
                                diam=4.0,
                                well_depth=860.0))

species(name='C2HF4(54)',
        atoms='C:2 F:4 H:1',
        thermo=(NASA([10.00, 537.60],
                     [ 3.83389000E+00,  1.37966000E-02,  5.83402000E-05,
                      -1.48777000E-07,  9.97012000E-11, -8.67615000E+04,
                       1.14268000E+01]),
                NASA([537.60, 3000.00],
                     [ 5.05373000E+00,  2.25776000E-02, -1.59857000E-05,
                       5.18103000E-09, -6.27784000E-13, -8.71507000E+04,
                       3.89888000E+00])),
        transport=gas_transport(geom='nonlinear',
                                diam=4.85,
                                well_depth=323.4,
                                dipole=2.3))

species(name='CHFCF2(55)',
        atoms='C:2 F:3 H:1',
        thermo=(NASA([10.00, 540.18],
                     [ 3.93201000E+00,  4.13887000E-03,  7.03233000E-05,
                      -1.49827000E-07,  9.42397000E-11, -6.15092000E+04,
                       9.50863000E+00]),
                NASA([540.18, 3000.00],
                     [ 3.82032000E+00,  1.97002000E-02, -1.38027000E-05,
                       4.49179000E-09, -5.49698000E-13, -6.17121000E+04,
                       7.98890000E+00])),
        transport=gas_transport(geom='nonlinear',
                                diam=4.442,
                                well_depth=251.5,
                                dipole=1.4))

species(name='CH2CF2(57)',
        atoms='C:2 F:2 H:2',
        thermo=(NASA([10.00, 534.29],
                     [ 4.10281000E+00, -1.01072000E-02,  1.21983000E-04,
                      -2.28108000E-07,  1.37933000E-10, -4.34906000E+04,
                       7.77929000E+00]),
                NASA([534.29, 3000.00],
                     [ 2.52167000E+00,  1.98841000E-02, -1.31824000E-05,
                       4.13929000E-09, -4.93215000E-13, -4.35808000E+04,
                       1.19914000E+01])),
        transport=gas_transport(geom='nonlinear',
                                diam=4.442,
                                well_depth=251.5,
                                dipole=1.4))

species(name='C2HF(58)',
        atoms='C:2 F:1 H:1',
        thermo=(NASA([10.00, 555.75],
                     [ 3.44980000E+00,  3.02630000E-03,  3.99146000E-05,
                      -8.96150000E-08,  5.74336000E-11,  1.14686000E+04,
                       5.90915000E+00]),
                NASA([555.75, 3000.00],
                     [ 4.23833000E+00,  8.67140000E-03, -5.87678000E-06,
                       1.96876000E-09, -2.53031000E-13,  1.12062000E+04,
                       9.95297000E-01])),
        transport=gas_transport(geom='linear',
                                diam=4.25,
                                well_depth=225.0,
                                dipole=1.0))

species(name='C2H2F2(59)',
        atoms='C:2 F:2 H:2',
        thermo=(NASA([298.00, 1100.00],
                     [ 3.83152000E-01,  2.94896000E-02, -2.94145000E-05,
                       1.64336000E-08, -4.01759000E-12, -3.69269000E+04,
                       2.25083000E+01]),
                NASA([1100.00, 3000.00],
                     [ 7.34201000E+00,  8.21939000E-03, -3.17549000E-06,
                       5.49282000E-10, -3.47434000E-14, -3.88233000E+04,
                      -1.31129000E+01])),
        transport=gas_transport(geom='nonlinear',
                                diam=4.442,
                                well_depth=251.5,
                                dipole=1.4))

species(name='C2H3F2(64)',
        atoms='C:2 F:2 H:3',
        thermo=(NASA([10.00, 530.26],
                     [ 3.95374000E+00,  2.80607000E-03,  6.87135000E-05,
                      -1.35100000E-07,  8.18166000E-11, -3.61481000E+04,
                       9.20378000E+00]),
                NASA([530.26, 3000.00],
                     [ 2.67787000E+00,  2.23019000E-02, -1.43606000E-05,
                       4.45233000E-09, -5.29912000E-13, -3.61516000E+04,
                       1.32411000E+01])),
        transport=gas_transport(geom='nonlinear',
                                diam=4.798,
                                well_depth=323.4,
                                dipole=2.3))

species(name='C2H3F2(65)',
        atoms='C:2 F:2 H:3',
        thermo=(NASA([10.00, 267.68],
                     [ 3.97026000E+00,  2.48557000E-03,  9.36596000E-05,
                      -2.62618000E-07,  2.48555000E-10, -3.79476000E+04,
                       9.23011000E+00]),
                NASA([267.68, 3000.00],
                     [ 2.69162000E+00,  2.15920000E-02, -1.34044000E-05,
                       4.02185000E-09, -4.66099000E-13, -3.78791000E+04,
                       1.37136000E+01])),
        transport=gas_transport(geom='nonlinear',
                                diam=4.798,
                                well_depth=323.4,
                                dipole=2.3))

species(name='C2H3F2(66)',
        atoms='C:2 F:2 H:3',
        thermo=(NASA([10.00, 1157.03],
                     [ 3.93382000E+00,  1.42501000E-02,  1.77758000E-06,
                      -8.62923000E-09,  3.21423000E-12, -3.22206000E+04,
                       9.76326000E+00]),
                NASA([1157.03, 3000.00],
                     [ 6.23595000E+00,  1.34751000E-02, -6.53103000E-06,
                       1.52429000E-09, -1.39119000E-13, -3.32342000E+04,
                      -3.75694000E+00])),
        transport=gas_transport(geom='nonlinear',
                                diam=4.583,
                                well_depth=312.2,
                                dipole=2.0))

species(name='C2H2F3(67)',
        atoms='C:2 F:3 H:2',
        thermo=(NASA([10.00, 1633.48],
                     [ 4.03194000E+00,  1.98962000E-02, -1.06494000E-05,
                       1.96763000E-09,  3.06708000E-14, -5.79352000E+04,
                       1.03725000E+01]),
                NASA([1633.48, 3000.00],
                     [ 1.50609000E+01, -8.60555000E-04,  2.67159000E-06,
                      -1.12649000E-09,  1.45700000E-13, -6.23722000E+04,
                      -5.08003000E+01])),
        transport=gas_transport(geom='nonlinear',
                                diam=4.798,
                                well_depth=323.4,
                                dipole=2.3))

species(name='C2H2F3(68)',
        atoms='C:2 F:3 H:2',
        thermo=(NASA([10.00, 143.65],
                     [ 3.91923000E+00,  1.06888000E-02,  3.02084000E-04,
                      -2.44345000E-06,  5.97346000E-09, -5.80222000E+04,
                       9.23031000E+00]),
                NASA([143.65, 3000.00],
                     [ 4.29616000E+00,  2.05251000E-02, -1.29366000E-05,
                       3.84020000E-09, -4.35292000E-13, -5.80540000E+04,
                       7.41304000E+00])),
        transport=gas_transport(geom='nonlinear',
                                diam=4.798,
                                well_depth=323.4,
                                dipole=2.3))

species(name='C2HF2(72)',
        atoms='C:2 F:2 H:1',
        thermo=(NASA([10.00, 529.92],