units(length='cm', time='s', quantity='mol', act_energy='kcal/mol')

ideal_gas(name='gas',
          elements="H D T C Ci O Oi N Ne Ar He Si S F Cl Br I X",
          species="""N2          Ne          CH3F(1)     O2(2)
                     H2O(3)      CH4(4)      H(5)        O(6)
                     OH(7)       H2(8)       Ar(9)       He(10)
                     HO2(11)     H2O2(12)    CO(13)      CO2(14)
                     HCO(15)     C(T)(16)    CH(17)      CH2(T)(18)
                     CH3(19)     CH2O(20)    HCCO(21)    C2H(22)
                     C2H2(23)    H2CC(24)    CH2(S)(25)  CH3OH(26)
                     CH3O(27)    CH2CO(28)   C2H3(29)    C2H4(30)
                     C2H6(31)    C2H5(32)    CH2OH(33)   CH3CO(34)
                     CH2CHO(35)  CH3CHO(36)  F(37)       HF(38)
                     CHF(39)     CH2F2(40)   CHF3(41)    CF2(42)
                     CF3(44)     CH2F(45)    CHFO(46)    CF3O(47)
                     CF2O(48)    CF(49)      CFO(50)     CH2CHF(55)
                     C2H4F(61)   C2H4F(62)   CH2CF(69)   C2H2F(70)
                     CH2CFO(78)  CHF2(81)    FO2(124)    O2(128)
                     CH2FO(131)  OF(133)     S(139)      CHO2(145)
                     CHO2(146)   CFO2(148)   C1OO1(156)  CH2O2(158)
                     CH2O2(160)  CHFO2(165)  C2H2O(181)  CHFO2(186)
                     CHF2O(189)  CHFO2(220)  S(290)      CFO3(296)
                     CHO3(309)   S(564)      CFO3(1309)  S(2051)
                     S(2111)     S(2239)     S(2608)""",
          reactions='all',
          transport='Mix',
          initial_state=state(temperature=300.0, pressure=OneAtm))

#-------------------------------------------------------------------------------
# Element data
#-------------------------------------------------------------------------------

element(symbol='Ci', atomic_mass=13.003)
element(symbol='D', atomic_mass=2.014)
element(symbol='Oi', atomic_mass=17.999)
element(symbol='T', atomic_mass=3.016)
element(symbol='X', atomic_mass=195.083)
#-------------------------------------------------------------------------------
# Species data
#-------------------------------------------------------------------------------

species(name='N2',
        atoms='N:2',
        thermo=(NASA([200.00, 1000.00],
                     [ 3.53101000E+00, -1.23661000E-04, -5.02999000E-07,
                       2.43531000E-09, -1.40881000E-12, -1.04698000E+03,
                       2.96747000E+00]),
                NASA([1000.00, 6000.00],
                     [ 2.95258000E+00,  1.39690000E-03, -4.92632000E-07,
                       7.86010000E-11, -4.60755000E-15, -9.23949000E+02,
                       5.87189000E+00])),
        transport=gas_transport(geom='linear',
                                diam=3.621,
                                well_depth=97.53,
                                polar=1.76,
                                rot_relax=4.0))

species(name='Ne',
        atoms='Ne:1',
        thermo=(NASA([200.00, 1000.00],
                     [ 2.50000000E+00,  0.00000000E+00,  0.00000000E+00,
                       0.00000000E+00,  0.00000000E+00, -7.45375000E+02,
                       3.35532000E+00]),
                NASA([1000.00, 6000.00],
                     [ 2.50000000E+00,  0.00000000E+00,  0.00000000E+00,
                       0.00000000E+00,  0.00000000E+00, -7.45375000E+02,
                       3.35532000E+00])),
        transport=gas_transport(geom='atom',
                                diam=3.758,
                                well_depth=148.6))

species(name='CH3F(1)',
        atoms='C:1 F:1 H:3',
        thermo=(NASA([10.00, 534.71],
                     [ 4.05191000E+00, -3.40134000E-03,  1.73410000E-05,
                       2.49456000E-09, -1.51790000E-11, -2.96051000E+04,
                       3.91759000E+00]),
                NASA([534.71, 3000.00],
                     [ 4.87074000E-01,  1.43029000E-02, -7.17972000E-06,
                       1.71680000E-09, -1.57925000E-13, -2.90957000E+04,
                       2.00824000E+01])),
        transport=gas_transport(geom='nonlinear',
                                diam=4.123,
                                well_depth=262.0,
                                dipole=1.8))

species(name='O2(2)',
        atoms='O:2',
        thermo=(NASA([100.00, 1074.56],
                     [ 3.53732119E+00, -1.21570218E-03,  5.31615412E-06,
                      -4.89440431E-09,  1.45843834E-12, -1.03858843E+03,
                       4.68368628E+00]),
                NASA([1074.56, 5000.00],
                     [ 3.15382767E+00,  1.67803236E-03, -7.69967826E-07,
                       1.51273970E-10, -1.08781191E-14, -1.04082028E+03,
                       6.16751948E+00])),
        transport=gas_transport(geom='linear',
                                diam=3.467,
                                well_depth=106.7))

species(name='H2O(3)',
        atoms='H:2 O:1',
        thermo=(NASA([100.00, 1130.23],
                     [ 4.05763550E+00, -7.87932103E-04,  2.90876264E-06,
                      -1.47517395E-09,  2.12837268E-13, -3.02815866E+04,
                      -3.11362857E-01]),
                NASA([1130.23, 5000.00],
                     [ 2.84325279E+00,  2.75108167E-03, -7.81029382E-07,
                       1.07243155E-10, -5.79388302E-15, -2.99586138E+04,
                       5.91040664E+00])),
        transport=gas_transport(geom='nonlinear',
                                diam=2.641,
                                well_depth=809.102,
                                polar=1.76,
                                rot_relax=4.0))

species(name='CH4(4)',
        atoms='C:1 H:4',
        thermo=(NASA([100.00, 1084.13],
                     [ 4.20541165E+00, -5.35553231E-03,  2.51121875E-05,
                      -2.13761130E-08,  5.97517071E-12, -1.01619431E+04,
                      -9.21266354E-01]),
                NASA([1084.13, 5000.00],
                     [ 9.08286394E-01,  1.14540517E-02, -4.57171907E-06,
                       8.29187209E-10, -5.66311241E-14, -9.71998349E+03,
                       1.39929773E+01])),
        transport=gas_transport(geom='nonlinear',
                                diam=3.746,
                                well_depth=141.4,
                                polar=2.6,
                                rot_relax=13.0))

species(name='H(5)',
        atoms='H:1',
        thermo=(NASA([100.00, 3821.96],
                     [ 2.50000000E+00,  4.63019286E-14, -6.51209886E-17,
                       3.00122319E-20, -4.26132370E-24,  2.54742178E+04,
                      -4.44972896E-01]),
                NASA([3821.96, 5000.00],
                     [ 2.49999979E+00,  2.03347645E-10, -7.42468868E-14,
                       1.19914300E-17, -7.22692836E-22,  2.54742179E+04,
                      -4.44971601E-01])),
        transport=gas_transport(geom='atom',
                                diam=2.05,
                                well_depth=145.0))

species(name='O(6)',
        atoms='O:1',
        thermo=(NASA([100.00, 3821.96],
                     [ 2.50000000E+00,  4.63019286E-14, -6.51209886E-17,
                       3.00122319E-20, -4.26132370E-24,  2.92302441E+04,
                       5.12616427E+00]),
                NASA([3821.96, 5000.00],
                     [ 2.49999979E+00,  2.03347645E-10, -7.42468868E-14,
                       1.19914300E-17, -7.22692836E-22,  2.92302443E+04,
                       5.12616557E+00])),
        transport=gas_transport(geom='atom',
                                diam=2.75,
                                well_depth=80.0))

species(name='OH(7)',
        atoms='H:1 O:1',
        thermo=(NASA([100.00, 1145.76],
                     [ 3.51456875E+00,  2.92693774E-05, -5.32137450E-07,
                       1.01945969E-09, -3.85933462E-13,  3.41425417E+03,
                       2.10434625E+00]),
                NASA([1145.76, 5000.00],
                     [ 3.07193460E+00,  6.04024104E-04, -1.39829615E-08,
                      -2.13435373E-11,  2.48056949E-15,  3.57938911E+03,
                       4.57802971E+00])),
        transport=gas_transport(geom='linear',
                                diam=2.75,
                                well_depth=80.0))

species(name='H2(8)',
        atoms='H:2',
        thermo=(NASA([100.00, 1959.09],
                     [ 3.43536444E+00,  2.12707571E-04, -2.78618732E-07,
                       3.40262216E-10, -7.76019740E-14, -1.03135986E+03,
                      -3.90841855E+00]),
                NASA([1959.09, 5000.00],
                     [ 2.78813233E+00,  5.87684464E-04,  1.58990042E-07,
                      -5.52698134E-11,  4.34281179E-15, -5.96124505E+02,
                       1.12931228E-01])),
        transport=gas_transport(geom='linear',
                                diam=2.833,
                                well_depth=59.7))

species(name='Ar(9)',
        atoms='Ar:1',
        thermo=(NASA([200.00, 1000.00],
                     [ 2.50000000E+00,  0.00000000E+00,  0.00000000E+00,
                       0.00000000E+00,  0.00000000E+00, -7.45375000E+02,
                       4.37967000E+00]),
                NASA([1000.00, 6000.00],
                     [ 2.50000000E+00,  0.00000000E+00,  0.00000000E+00,
                       0.00000000E+00,  0.00000000E+00, -7.45375000E+02,
                       4.37967000E+00])),
        transport=gas_transport(geom='atom',
                                diam=3.33,
                                well_depth=136.501))

species(name='He(10)',
        atoms='He:1',
        thermo=(NASA([200.00, 1000.00],
                     [ 2.50000000E+00,  0.00000000E+00,  0.00000000E+00,
                       0.00000000E+00,  0.00000000E+00, -7.45375000E+02,
                       9.28724000E-01]),
                NASA([1000.00, 6000.00],
                     [ 2.50000000E+00,  0.00000000E+00,  0.00000000E+00,
                       0.00000000E+00,  0.00000000E+00, -7.45375000E+02,
                       9.28724000E-01])),
        transport=gas_transport(geom='atom',
                                diam=2.576,
                                well_depth=10.2))

species(name='HO2(11)',
        atoms='H:1 O:2',
        thermo=(NASA([200.00, 1000.00],
                     [ 4.30180000E+00, -4.74912000E-03,  2.11583000E-05,
                      -2.42764000E-08,  9.29225000E-12,  2.64018000E+02,
                       3.71666000E+00]),
                NASA([1000.00, 5000.00],
                     [ 4.17229000E+00,  1.88118000E-03, -3.46277000E-07,
                       1.94658000E-11,  1.76257000E-16,  3.10207000E+01,
                       2.95768000E+00])),
        transport=gas_transport(geom='nonlinear',
                                diam=3.458,
                                well_depth=107.4,
                                rot_relax=1.0))

species(name='H2O2(12)',
        atoms='H:2 O:2',
        thermo=(NASA([200.00, 1000.00],
                     [ 4.31515000E+00, -8.47391000E-04,  1.76404000E-05,
                      -2.26763000E-08,  9.08950000E-12, -1.77067000E+04,
                       3.27373000E+00]),
                NASA([1000.00, 6000.00],
                     [ 4.57977000E+00,  4.05326000E-03, -1.29845000E-06,
                       1.98211000E-10, -1.13969000E-14, -1.80072000E+04,
                       6.64971000E-01])),
        transport=gas_transport(geom='nonlinear',
                                diam=4.196,
                                well_depth=289.3))

species(name='CO(13)',
        atoms='C:1 O:1',
        thermo=(NASA([100.00, 1571.64],
                     [ 3.56837966E+00, -8.52122553E-04,  2.48916994E-06,
                      -1.56330304E-09,  3.13593126E-13, -1.42842549E+04,
                       3.57912298E+00]),
                NASA([1571.64, 5000.00],
                     [ 2.91307483E+00,  1.64656682E-03, -6.88609248E-07,
                       1.21036168E-10, -7.84008898E-15, -1.41808888E+04,
                       6.71041012E+00])),
        transport=gas_transport(geom='linear',
                                diam=3.69,
                                well_depth=91.7,
                                polar=1.76,
                                rot_relax=4.0))

species(name='CO2(14)',
        atoms='C:1 O:2',
        thermo=(NASA([200.00, 1000.00],
                     [ 2.35681000E+00,  8.98413000E-03, -7.12206000E-06,
                       2.45730000E-09, -1.42885000E-13, -4.83720000E+04,
                       9.90090000E+00]),
                NASA([1000.00, 6000.00],
                     [ 4.63651000E+00,  2.74146000E-03, -9.95898000E-07,
                       1.60387000E-10, -9.16199000E-15, -4.90249000E+04,
                      -1.93490000E+00])),
        transport=gas_transport(geom='linear',
                                diam=3.941,
                                well_depth=195.201))

species(name='HCO(15)',
        atoms='C:1 H:1 O:1',
        thermo=(NASA([200.00, 1000.00],
                     [ 4.23755000E+00, -3.32075000E-03,  1.40030000E-05,
                      -1.34240000E-08,  4.37416000E-12,  3.87241000E+03,
                       3.30835000E+00]),
                NASA([1000.00, 6000.00],
                     [ 3.92002000E+00,  2.52279000E-03, -6.71004000E-07,
                       1.05616000E-10, -7.43798000E-15,  3.65343000E+03,
                       3.58077000E+00])),
        transport=gas_transport(geom='nonlinear',
                                diam=3.59,
                                well_depth=498.002))

species(name='C(T)(16)',
        atoms='C:1',
        thermo=(NASA([100.00, 3821.96],
                     [ 2.50000000E+00,  4.63019286E-14, -6.51209886E-17,
                       3.00122319E-20, -4.26132370E-24,  8.54745247E+04,
                       3.65978421E+00]),
                NASA([3821.96, 5000.00],
                     [ 2.49999979E+00,  2.03347645E-10, -7.42468868E-14,
                       1.19914300E-17, -7.22692836E-22,  8.54745249E+04,
                       3.65978550E+00])),
        transport=gas_transport(geom='atom',
                                diam=3.298,
                                well_depth=71.4))

species(name='CH(17)',
        atoms='C:1 H:1',
        thermo=(NASA([200.00, 1000.00],
                     [ 3.48976000E+00,  3.24322000E-04, -1.68998000E-06,
                       3.16284000E-09, -1.40618000E-12,  7.06126000E+04,
                       2.08428000E+00]),
                NASA([1000.00, 6000.00],
                     [ 2.52094000E+00,  1.76536000E-03, -4.61477000E-07,
                       5.92897000E-11, -3.34745000E-15,  7.09468000E+04,
                       7.40518000E+00])),
        transport=gas_transport(geom='linear',
                                diam=2.75,
                                well_depth=80.0))

species(name='CH2(T)(18)',
        atoms='C:1 H:2',
        thermo=(NASA([100.00, 1104.65],
                     [ 4.01192377E+00, -1.54977640E-04,  3.26297536E-06,
                      -2.40421548E-09,  5.69495894E-13,  4.58676802E+04,
                       5.33200914E-01]),
                NASA([1104.65, 5000.00],
                     [ 3.14983336E+00,  2.96674350E-03, -9.76056395E-07,
                       1.54115414E-10, -9.50339261E-15,  4.60581392E+04,
                       4.77807945E+00])),
        transport=gas_transport(geom='nonlinear',
                                diam=3.8,
                                well_depth=144.001))

species(name='CH3(19)',
        atoms='C:1 H:3',
        thermo=(NASA([200.00, 1000.00],
                     [ 3.65718000E+00,  2.12660000E-03,  5.45839000E-06,
                      -6.61810000E-09,  2.46571000E-12,  1.64227000E+04,
                       1.67354000E+00]),
                NASA([1000.00, 6000.00],
                     [ 2.97812000E+00,  5.79785000E-03, -1.97558000E-06,
                       3.07298000E-10, -1.79174000E-14,  1.65095000E+04,
                       4.72248000E+00])),
        transport=gas_transport(geom='nonlinear',
                                diam=3.8,
                                well_depth=144.001))

species(name='CH2O(20)',
        atoms='C:1 H:2 O:1',
        thermo=(NASA([200.00, 1000.00],
                     [ 4.79372000E+00, -9.90833000E-03,  3.73220000E-05,
                      -3.79285000E-08,  1.31773000E-11, -1.43792000E+04,
                       6.02798000E-01]),
                NASA([1000.00, 6000.00],
                     [ 3.16953000E+00,  6.19321000E-03, -2.25056000E-06,
                       3.65976000E-10, -2.20149000E-14, -1.45487000E+04,
                       6.04208000E+00])),
        transport=gas_transport(geom='nonlinear',
                                diam=3.59,
                                well_depth=498.002,
                                rot_relax=2.0))

species(name='HCCO(21)',
        atoms='C:2 H:1 O:1',
        thermo=(NASA([200.00, 1000.00],
                     [ 1.87608000E+00,  2.21205000E-02, -3.58869000E-05,
                       3.05403000E-08, -1.01281000E-11,  2.01634000E+04,
                       1.36968000E+01]),
                NASA([1000.00, 6000.00],
                     [ 5.91479000E+00,  3.71409000E-03, -1.30137000E-06,
                       2.06473000E-10, -1.21477000E-14,  1.93596000E+04,
                      -5.50567000E+00])),
        transport=gas_transport(geom='nonlinear',
                                diam=2.5,
                                well_depth=150.001,
                                rot_relax=1.0))

species(name='C2H(22)',
        atoms='C:2 H:1',
        thermo=(NASA([200.00, 1000.00],
                     [ 2.89868000E+00,  1.32988000E-02, -2.80733000E-05,
                       2.89485000E-08, -1.07502000E-11,  6.70616000E+04,
                       6.18548000E+00]),
                NASA([1000.00, 6000.00],
                     [ 3.66270000E+00,  3.82492000E-03, -1.36633000E-06,
                       2.13455000E-10, -1.23217000E-14,  6.71684000E+04,
                       3.92206000E+00])),
        transport=gas_transport(geom='linear',
                                diam=4.1,
                                well_depth=209.001,
                                rot_relax=2.5))

species(name='C2H2(23)',
        atoms='C:2 H:2',
        thermo=(NASA([200.00, 1000.00],
                     [ 8.08680000E-01,  2.33616000E-02, -3.55172000E-05,
                       2.80153000E-08, -8.50075000E-12,  2.64290000E+04,
                       1.39397000E+01]),
                NASA([1000.00, 6000.00],
                     [ 4.65878000E+00,  4.88397000E-03, -1.60829000E-06,
                       2.46975000E-10, -1.38606000E-14,  2.57594000E+04,
                      -3.99838000E+00])),
        transport=gas_transport(geom='linear',
                                diam=4.1,
                                well_depth=209.001,
                                rot_relax=2.5))

species(name='H2CC(24)',
        atoms='C:2 H:2',
        thermo=(NASA([200.00, 1000.00],
                     [ 3.28155000E+00,  6.97643000E-03, -2.38528000E-06,
                      -1.21078000E-09,  9.82042000E-13,  4.83192000E+04,
                       5.92036000E+00]),
                NASA([1000.00, 6000.00],
                     [ 4.27807000E+00,  4.75623000E-03, -1.63007000E-06,
                       2.54623000E-10, -1.48860000E-14,  4.80140000E+04,
                       6.39979000E-01])),
        transport=gas_transport(geom='nonlinear',
                                diam=4.1,
                                well_depth=209.0,
                                rot_relax=2.5))

species(name='CH2(S)(25)',
        atoms='C:1 H:2',
        thermo=(NASA([100.00, 1442.38],
                     [ 4.10264180E+00, -1.44066459E-03,  5.45063563E-06,
                      -3.57996736E-09,  7.56175966E-13,  5.04005786E+04,
                      -4.11758595E-01]),
                NASA([1442.38, 5000.00],
                     [ 2.62651319E+00,  3.94757137E-03, -1.49921131E-06,
                       2.54532600E-10, -1.62950724E-14,  5.06917334E+04,
                       6.78356408E+00])),
        transport=gas_transport(geom='nonlinear',
                                diam=3.8,
                                well_depth=144.001))

species(name='CH3OH(26)',
        atoms='C:1 H:4 O:1',
        thermo=(NASA([200.00, 1000.00],
                     [ 5.65851000E+00, -1.62983000E-02,  6.91938000E-05,
                      -7.58373000E-08,  2.80428000E-11, -2.56120000E+04,
                      -8.97331000E-01]),
                NASA([1000.00, 6000.00],
                     [ 3.52727000E+00,  1.03179000E-02, -3.62893000E-06,
                       5.77448000E-10, -3.42183000E-14, -2.60029000E+04,
                       5.16759000E+00])),
        transport=gas_transport(geom='nonlinear',
                                diam=3.626,
                                well_depth=481.802,
                                rot_relax=1.0))

species(name='CH3O(27)',
        atoms='C:1 H:3 O:1',
        thermo=(NASA([200.00, 1000.00],
                     [ 3.71181000E+00, -2.80463000E-03,  3.76551000E-05,
                      -4.73072000E-08,  1.86588000E-11,  1.29570000E+03,
                       6.57241000E+00]),
                NASA([1000.00, 6000.00],
                     [ 4.75779000E+00,  7.44142000E-03, -2.69705000E-06,
                       4.38091000E-10, -2.63537000E-14,  3.78112000E+02,
                      -1.96680000E+00])),
        transport=gas_transport(geom='nonlinear',
                                diam=3.69,
                                well_depth=417.002,
                                dipole=1.7,
                                rot_relax=2.0))

species(name='CH2CO(28)',
        atoms='C:2 H:2 O:1',
        thermo=(NASA([200.00, 1000.00],
                     [ 2.13241000E+00,  1.81319000E-02, -1.74093000E-05,
                       9.35336000E-09, -2.01725000E-12, -7.14809000E+03,
                       1.33808000E+01]),
                NASA([1000.00, 6000.00],
                     [ 5.75871000E+00,  6.35124000E-03, -2.25955000E-06,
                       3.62322000E-10, -2.15856000E-14, -8.08533000E+03,
                      -4.96490000E+00])),
        transport=gas_transport(geom='nonlinear',
                                diam=3.97,
                                well_depth=436.001,
                                rot_relax=2.0))

species(name='C2H3(29)',
        atoms='C:2 H:3',
        thermo=(NASA([200.00, 1000.00],
                     [ 3.36378000E+00,  2.65766000E-04,  2.79621000E-05,
                      -3.72987000E-08,  1.51590000E-11,  3.44750000E+04,
                       7.91510000E+00]),
                NASA([1000.00, 6000.00],
                     [ 4.15027000E+00,  7.54021000E-03, -2.62998000E-06,
                       4.15974000E-10, -2.45408000E-14,  3.38566000E+04,
                       1.72812000E+00])),
        transport=gas_transport(geom='nonlinear',
                                diam=4.1,
                                well_depth=209.001,
                                rot_relax=1.0))

species(name='C2H4(30)',
        atoms='C:2 H:4',
        thermo=(NASA([200.00, 1000.00],
                     [ 3.95920000E+00, -7.57051000E-03,  5.70990000E-05,
                      -6.91588000E-08,  2.69884000E-11,  5.08978000E+03,
                       4.09730000E+00]),
                NASA([1000.00, 6000.00],
                     [ 3.99183000E+00,  1.04834000E-02, -3.71721000E-06,
                       5.94628000E-10, -3.53630000E-14,  4.26866000E+03,
                      -2.69082000E-01])),
        transport=gas_transport(geom='nonlinear',
                                diam=3.971,
                                well_depth=280.801,
                                rot_relax=1.5))

species(name='C2H6(31)',
        atoms='C:2 H:6',
        thermo=(NASA([200.00, 1000.00],
                     [ 4.29143000E+00, -5.50155000E-03,  5.99438000E-05,
                      -7.08466000E-08,  2.68686000E-11, -1.15222000E+04,
                       2.66679000E+00]),
                NASA([1000.00, 6000.00],
                     [ 4.04666000E+00,  1.53539000E-02, -5.47039000E-06,
                       8.77827000E-10, -5.23168000E-14, -1.24473000E+04,
                      -9.68698000E-01])),
        transport=gas_transport(geom='nonlinear',
                                diam=4.302,
                                well_depth=252.301,
                                rot_relax=1.5))

species(name='C2H5(32)',
        atoms='C:2 H:5',
        thermo=(NASA([200.00, 1000.00],
                     [ 4.24186000E+00, -3.56905000E-03,  4.82667000E-05,
                      -5.85401000E-08,  2.25805000E-11,  1.29690000E+04,
                       4.44704000E+00]),
                NASA([1000.00, 6000.00],
                     [ 4.32196000E+00,  1.23931000E-02, -4.39681000E-06,
                       7.03520000E-10, -4.18435000E-14,  1.21759000E+04,
                       1.71104000E-01])),
        transport=gas_transport(geom='nonlinear',
                                diam=4.302,
                                well_depth=252.301,
                                rot_relax=1.5))

species(name='CH2OH(33)',
        atoms='C:1 H:3 O:1',
        thermo=(NASA([200.00, 1000.00],
                     [ 4.47834000E+00, -1.35070000E-03,  2.78485000E-05,
                      -3.64869000E-08,  1.47907000E-11, -3.50073000E+03,
                       3.30913000E+00]),
                NASA([1000.00, 6000.00],
                     [ 5.09314000E+00,  5.94761000E-03, -2.06497000E-06,
                       3.23008000E-10, -1.88126000E-14, -4.03410000E+03,
                      -1.84691000E+00])),
        transport=gas_transport(geom='nonlinear',
                                diam=3.69,
                                well_depth=417.002,
                                dipole=1.7,
                                rot_relax=2.0))

species(name='CH3CO(34)',
        atoms='C:2 H:3 O:1',
        thermo=(NASA([200.00, 1000.00],
                     [ 4.03587000E+00,  8.77295000E-04,  3.07100000E-05,
                      -3.92476000E-08,  1.52969000E-11, -2.68207000E+03,
                       7.86177000E+00]),
                NASA([1000.00, 6000.00],
                     [ 5.31372000E+00,  9.17378000E-03, -3.32204000E-06,
                       5.39475000E-10, -3.24524000E-14, -3.64504000E+03,
                      -1.67576000E+00])),
        transport=gas_transport(geom='nonlinear',
                                diam=3.97,
                                well_depth=436.001,
                                rot_relax=2.0))

species(name='CH2CHO(35)',
        atoms='C:2 H:3 O:1',
        thermo=(NASA([200.00, 1000.00],
                     [ 2.66874000E+00,  9.62330000E-03,  1.60617000E-05,
                      -2.87682000E-08,  1.25030000E-11,  2.19438000E+02,
                       1.25694000E+01]),
                NASA([1000.00, 6000.00],
                     [ 5.91637000E+00,  8.84650000E-03, -3.14955000E-06,
                       5.05413000E-10, -3.01305000E-14, -1.04780000E+03,
                      -6.10650000E+00])),
        transport=gas_transport(geom='nonlinear',
                                diam=3.97,
                                well_depth=436.001,
                                rot_relax=2.0))

species(name='CH3CHO(36)',
        atoms='C:2 H:4 O:1',
        thermo=(NASA([200.00, 1000.00],
                     [ 4.72946000E+00, -3.19329000E-03,  4.75349000E-05,
                      -5.74586000E-08,  2.19311000E-11, -2.15729000E+04,
                       4.10302000E+00]),
                NASA([1000.00, 6000.00],
                     [ 5.40411000E+00,  1.17231000E-02, -4.22631000E-06,
                       6.83725000E-10, -4.09849000E-14, -2.25931000E+04,
                      -3.48079000E+00])),
        transport=gas_transport(geom='nonlinear',
                                diam=3.97,
                                well_depth=436.001,
                                rot_relax=2.0))

species(name='F(37)',
        atoms='F:1',
        thermo=(NASA([298.00, 1400.00],
                     [ 2.90371000E+00, -6.35296000E-04,  2.64735000E-07,
                       7.69063000E-11, -5.45254000E-14,  8.67227000E+03,
                       2.70828000E+00]),
                NASA([1400.00, 3000.00],
                     [ 2.65117000E+00, -1.40130000E-04,  5.19236000E-08,
                      -8.84954000E-12,  5.90280000E-16,  8.75829000E+03,
                       4.07857000E+00])),
        transport=gas_transport(geom='atom',
                                diam=2.75,
                                well_depth=80.0))

species(name='HF(38)',
        atoms='F:1 H:1',
        thermo=(NASA([298.00, 1250.00],
                     [ 3.43657000E+00,  4.86021000E-04, -1.25240000E-06,
                       1.36475000E-09, -4.09574000E-13, -3.38001000E+04,
                       1.20682000E+00]),
                NASA([1250.00, 3000.00],
                     [ 2.78130000E+00,  1.03959000E-03, -2.41735000E-07,
                       2.68416000E-11, -1.09766000E-15, -3.35042000E+04,
                       5.01970000E+00])),
        transport=gas_transport(geom='linear',
                                diam=3.148,
                                well_depth=330.001,
                                dipole=1.92,
                                polar=2.46,
                                rot_relax=1.0))

species(name='CHF(39)',
        atoms='C:1 F:1 H:1',
        thermo=(NASA([298.00, 1300.00],
                     [ 3.34484000E+00,  2.35461000E-03,  1.93983000E-06,
                      -2.65251000E-09,  7.91169000E-13,  1.67661000E+04,
                       7.05286000E+00]),
                NASA([1300.00, 3000.00],