units(length='cm', time='s', quantity='mol', act_energy='kcal/mol')

ideal_gas(name='gas',
          elements="H D T C Ci O Oi N Ne Ar He Si S F Cl Br I X",
          species="""N2          Ne          CH3F(1)     O2(2)
                     H2O(3)      OH(4)       CH4(5)      H(6)
                     O(7)        H2(8)       HO2(11)     H2O2(12)
                     CO(13)      CO2(14)     HCO(15)     CH2(T)(18)
                     CH3(19)     CH2O(20)    HCCO(21)    C2H(22)
                     C2H2(23)    H2CC(24)    CH2(S)(25)  CH3O(27)
                     CH2CO(28)   C2H3(29)    CH2OH(33)   CH3CO(34)
                     F(37)       HF(38)      CHF(39)     CH2F2(40)
                     CHF3(41)    CF2(42)     CF3(44)     CH2F(45)
                     CHFO(46)    CF3O(47)    CF2O(48)    CF(49)
                     CFO(50)     CH2CHF(55)  C2H4F(61)   C2H4F(62)
                     CH2CF(69)   C2H2F(70)   CH2CFO(78)  CHF2(81)
                     FO2(124)    C1OO1(129)  S(132)      CH2O2(135)
                     CHO2(136)   CH2O2(137)  CHO2(138)   CO2(140)
                     CHO2(141)   CHFO2(143)  CFO2(149)   CH2FO(158)
                     CHFO2(161)  OF(162)     CH2FO(163)  CHF2O(165)
                     CHFO2(173)  CO3(204)    CO3(206)    C2O3(207)
                     C2O3(212)   CF2O2(276)  CFO3(279)   S(285)
                     FO(294)     S(318)      CHO3(330)   CH2O3(400)
                     C2HO3(433)  C2HO2(615)  CFO3(663)   CO3(667)
                     S(672)      CHF2O(685)  CHO3(687)   S(1295)
                     S(1318)     S(1705)     S(2189)     S(2969)
                     S(3355)     C2O3(3366)""",
          reactions='all',
          transport='Mix',
          initial_state=state(temperature=300.0, pressure=OneAtm))

#-------------------------------------------------------------------------------
# Element data
#-------------------------------------------------------------------------------

element(symbol='Ci', atomic_mass=13.003)
element(symbol='D', atomic_mass=2.014)
element(symbol='Oi', atomic_mass=17.999)
element(symbol='T', atomic_mass=3.016)
element(symbol='X', atomic_mass=195.083)
#-------------------------------------------------------------------------------
# Species data
#-------------------------------------------------------------------------------

species(name='N2',
        atoms='N:2',
        thermo=(NASA([200.00, 1000.00],
                     [ 3.53101000E+00, -1.23661000E-04, -5.02999000E-07,
                       2.43531000E-09, -1.40881000E-12, -1.04698000E+03,
                       2.96747000E+00]),
                NASA([1000.00, 6000.00],
                     [ 2.95258000E+00,  1.39690000E-03, -4.92632000E-07,
                       7.86010000E-11, -4.60755000E-15, -9.23949000E+02,
                       5.87189000E+00])),
        transport=gas_transport(geom='linear',
                                diam=3.621,
                                well_depth=97.53,
                                polar=1.76,
                                rot_relax=4.0))

species(name='Ne',
        atoms='Ne:1',
        thermo=(NASA([200.00, 1000.00],
                     [ 2.50000000E+00,  0.00000000E+00,  0.00000000E+00,
                       0.00000000E+00,  0.00000000E+00, -7.45375000E+02,
                       3.35532000E+00]),
                NASA([1000.00, 6000.00],
                     [ 2.50000000E+00,  0.00000000E+00,  0.00000000E+00,
                       0.00000000E+00,  0.00000000E+00, -7.45375000E+02,
                       3.35532000E+00])),
        transport=gas_transport(geom='atom',
                                diam=3.758,
                                well_depth=148.6))

species(name='CH3F(1)',
        atoms='C:1 F:1 H:3',
        thermo=(NASA([10.00, 534.71],
                     [ 4.05191000E+00, -3.40134000E-03,  1.73410000E-05,
                       2.49456000E-09, -1.51790000E-11, -2.96051000E+04,
                       3.91759000E+00]),
                NASA([534.71, 3000.00],
                     [ 4.87074000E-01,  1.43029000E-02, -7.17972000E-06,
                       1.71680000E-09, -1.57925000E-13, -2.90957000E+04,
                       2.00824000E+01])),
        transport=gas_transport(geom='nonlinear',
                                diam=4.123,
                                well_depth=262.0,
                                dipole=1.8))

species(name='O2(2)',
        atoms='O:2',
        thermo=(NASA([100.00, 1074.55],
                     [ 3.53732242E+00, -1.21571637E-03,  5.31620217E-06,
                      -4.89446388E-09,  1.45846240E-12, -1.03858849E+03,
                       4.68368186E+00]),
                NASA([1074.55, 5000.00],
                     [ 3.15382086E+00,  1.67804362E-03, -7.69974187E-07,
                       1.51275451E-10, -1.08782405E-14, -1.04081731E+03,
                       6.16755802E+00])),
        transport=gas_transport(geom='linear',
                                diam=3.467,
                                well_depth=106.7))

species(name='H2O(3)',
        atoms='H:2 O:1',
        thermo=(NASA([100.00, 1130.23],
                     [ 4.05763525E+00, -7.87929311E-04,  2.90875350E-06,
                      -1.47516305E-09,  2.12833045E-13, -3.02815866E+04,
                      -3.11361962E-01]),
                NASA([1130.23, 5000.00],
                     [ 2.84325449E+00,  2.75107891E-03, -7.81027841E-07,
                       1.07242800E-10, -5.79385414E-15, -2.99586146E+04,
                       5.91039696E+00])),
        transport=gas_transport(geom='nonlinear',
                                diam=2.641,
                                well_depth=809.102,
                                polar=1.76,
                                rot_relax=4.0))

species(name='OH(4)',
        atoms='H:1 O:1',
        thermo=(NASA([100.00, 1145.76],
                     [ 3.51456840E+00,  2.92733106E-05, -5.32150213E-07,
                       1.01947475E-09, -3.85939231E-13,  3.41425418E+03,
                       2.10434752E+00]),
                NASA([1145.76, 5000.00],
                     [ 3.07193716E+00,  6.04019964E-04, -1.39806623E-08,
                      -2.13440654E-11,  2.48061237E-15,  3.57938796E+03,
                       4.57801513E+00])),
        transport=gas_transport(geom='linear',
                                diam=2.75,
                                well_depth=80.0))

species(name='CH4(5)',
        atoms='C:1 H:4',
        thermo=(NASA([100.00, 1084.13],
                     [ 4.20541221E+00, -5.35553877E-03,  2.51122092E-05,
                      -2.13761398E-08,  5.97518145E-12, -1.01619432E+04,
                      -9.21268377E-01]),
                NASA([1084.13, 5000.00],
                     [ 9.08283160E-01,  1.14540571E-02, -4.57172207E-06,
                       8.29187907E-10, -5.66311813E-14, -9.71998208E+03,
                       1.39929956E+01])),
        transport=gas_transport(geom='nonlinear',
                                diam=3.746,
                                well_depth=141.4,
                                polar=2.6,
                                rot_relax=13.0))

species(name='H(6)',
        atoms='H:1',
        thermo=(NASA([100.00, 3598.68],
                     [ 2.50000000E+00, -1.84483083E-15,  2.71425215E-18,
                      -1.30027816E-21,  1.91033296E-25,  2.54742178E+04,
                      -4.44972896E-01]),
                NASA([3598.68, 5000.00],
                     [ 2.50000000E+00, -2.82484701E-12,  1.07036546E-15,
                      -1.78887662E-19,  1.11248406E-23,  2.54742178E+04,
                      -4.44972914E-01])),
        transport=gas_transport(geom='atom',
                                diam=2.05,
                                well_depth=145.0))

species(name='O(7)',
        atoms='O:1',
        thermo=(NASA([100.00, 3598.68],
                     [ 2.50000000E+00, -1.84483083E-15,  2.71425215E-18,
                      -1.30027816E-21,  1.91033296E-25,  2.92302441E+04,
                       5.12616427E+00]),
                NASA([3598.68, 5000.00],
                     [ 2.50000000E+00, -2.82484701E-12,  1.07036546E-15,
                      -1.78887662E-19,  1.11248406E-23,  2.92302441E+04,
                       5.12616426E+00])),
        transport=gas_transport(geom='atom',
                                diam=2.75,
                                well_depth=80.0))

species(name='H2(8)',
        atoms='H:2',
        thermo=(NASA([100.00, 1959.07],
                     [ 3.43536405E+00,  2.12710954E-04, -2.78626405E-07,
                       3.40268235E-10, -7.76034644E-14, -1.03135984E+03,
                      -3.90841705E+00]),
                NASA([1959.07, 5000.00],
                     [ 2.78817306E+00,  5.87631545E-04,  1.59014816E-07,
                      -5.52747855E-11,  4.34317420E-15, -5.96148537E+02,
                       1.12689783E-01])),
        transport=gas_transport(geom='linear',
                                diam=2.833,
                                well_depth=59.7))

species(name='HO2(11)',
        atoms='H:1 O:2',
        thermo=(NASA([200.00, 1000.00],
                     [ 4.30180000E+00, -4.74912000E-03,  2.11583000E-05,
                      -2.42764000E-08,  9.29225000E-12,  2.64018000E+02,
                       3.71666000E+00]),
                NASA([1000.00, 5000.00],
                     [ 4.17229000E+00,  1.88118000E-03, -3.46277000E-07,
                       1.94658000E-11,  1.76257000E-16,  3.10207000E+01,
                       2.95768000E+00])),
        transport=gas_transport(geom='nonlinear',
                                diam=3.458,
                                well_depth=107.4,
                                rot_relax=1.0))

species(name='H2O2(12)',
        atoms='H:2 O:2',
        thermo=(NASA([200.00, 1000.00],
                     [ 4.31515000E+00, -8.47391000E-04,  1.76404000E-05,
                      -2.26763000E-08,  9.08950000E-12, -1.77067000E+04,
                       3.27373000E+00]),
                NASA([1000.00, 6000.00],
                     [ 4.57977000E+00,  4.05326000E-03, -1.29845000E-06,
                       1.98211000E-10, -1.13969000E-14, -1.80072000E+04,
                       6.64971000E-01])),
        transport=gas_transport(geom='nonlinear',
                                diam=4.196,
                                well_depth=289.3))

species(name='CO(13)',
        atoms='C:1 O:1',
        thermo=(NASA([100.00, 1571.64],
                     [ 3.56837976E+00, -8.52123452E-04,  2.48917230E-06,
                      -1.56330523E-09,  3.13593773E-13, -1.42842549E+04,
                       3.57912263E+00]),
                NASA([1571.64, 5000.00],
                     [ 2.91307187E+00,  1.64657103E-03, -6.88611376E-07,
                       1.21036622E-10, -7.84012380E-15, -1.41808873E+04,
                       6.71042732E+00])),
        transport=gas_transport(geom='linear',
                                diam=3.69,
                                well_depth=91.7,
                                polar=1.76,
                                rot_relax=4.0))

species(name='CO2(14)',
        atoms='C:1 O:2',
        thermo=(NASA([200.00, 1000.00],
                     [ 2.35681000E+00,  8.98413000E-03, -7.12206000E-06,
                       2.45730000E-09, -1.42885000E-13, -4.83720000E+04,
                       9.90090000E+00]),
                NASA([1000.00, 6000.00],
                     [ 4.63651000E+00,  2.74146000E-03, -9.95898000E-07,
                       1.60387000E-10, -9.16199000E-15, -4.90249000E+04,
                      -1.93490000E+00])),
        transport=gas_transport(geom='linear',
                                diam=3.941,
                                well_depth=195.201))

species(name='HCO(15)',
        atoms='C:1 H:1 O:1',
        thermo=(NASA([200.00, 1000.00],
                     [ 4.23755000E+00, -3.32075000E-03,  1.40030000E-05,
                      -1.34240000E-08,  4.37416000E-12,  3.87241000E+03,
                       3.30835000E+00]),
                NASA([1000.00, 6000.00],
                     [ 3.92002000E+00,  2.52279000E-03, -6.71004000E-07,
                       1.05616000E-10, -7.43798000E-15,  3.65343000E+03,
                       3.58077000E+00])),
        transport=gas_transport(geom='nonlinear',
                                diam=3.59,
                                well_depth=498.0))

species(name='CH2(T)(18)',
        atoms='C:1 H:2',
        thermo=(NASA([100.00, 1104.56],
                     [ 4.01192396E+00, -1.54979597E-04,  3.26298067E-06,
                      -2.40422068E-09,  5.69497568E-13,  4.58676802E+04,
                       5.33200175E-01]),
                NASA([1104.56, 5000.00],
                     [ 3.14983430E+00,  2.96674180E-03, -9.76055359E-07,
                       1.54115160E-10, -9.50337094E-15,  4.60581389E+04,
                       4.77807430E+00])),
        transport=gas_transport(geom='linear',
                                diam=3.8,
                                well_depth=144.0))

species(name='CH3(19)',
        atoms='C:1 H:3',
        thermo=(NASA([200.00, 1000.00],
                     [ 3.65718000E+00,  2.12660000E-03,  5.45839000E-06,
                      -6.61810000E-09,  2.46571000E-12,  1.64227000E+04,
                       1.67354000E+00]),
                NASA([1000.00, 6000.00],
                     [ 2.97812000E+00,  5.79785000E-03, -1.97558000E-06,
                       3.07298000E-10, -1.79174000E-14,  1.65095000E+04,
                       4.72248000E+00])),
        transport=gas_transport(geom='linear',
                                diam=3.8,
                                well_depth=144.0))

species(name='CH2O(20)',
        atoms='C:1 H:2 O:1',
        thermo=(NASA([200.00, 1000.00],
                     [ 4.79372000E+00, -9.90833000E-03,  3.73220000E-05,
                      -3.79285000E-08,  1.31773000E-11, -1.43792000E+04,
                       6.02798000E-01]),
                NASA([1000.00, 6000.00],
                     [ 3.16953000E+00,  6.19321000E-03, -2.25056000E-06,
                       3.65976000E-10, -2.20149000E-14, -1.45487000E+04,
                       6.04208000E+00])),
        transport=gas_transport(geom='nonlinear',
                                diam=3.59,
                                well_depth=498.0,
                                rot_relax=2.0))

species(name='HCCO(21)',
        atoms='C:2 H:1 O:1',
        thermo=(NASA([200.00, 1000.00],
                     [ 1.87608000E+00,  2.21205000E-02, -3.58869000E-05,
                       3.05403000E-08, -1.01281000E-11,  2.01634000E+04,
                       1.36968000E+01]),
                NASA([1000.00, 6000.00],
                     [ 5.91479000E+00,  3.71409000E-03, -1.30137000E-06,
                       2.06473000E-10, -1.21477000E-14,  1.93596000E+04,
                      -5.50567000E+00])),
        transport=gas_transport(geom='nonlinear',
                                diam=2.5,
                                well_depth=150.0,
                                rot_relax=1.0))

species(name='C2H(22)',
        atoms='C:2 H:1',
        thermo=(NASA([200.00, 1000.00],
                     [ 2.89868000E+00,  1.32988000E-02, -2.80733000E-05,
                       2.89485000E-08, -1.07502000E-11,  6.70616000E+04,
                       6.18548000E+00]),
                NASA([1000.00, 6000.00],
                     [ 3.66270000E+00,  3.82492000E-03, -1.36633000E-06,
                       2.13455000E-10, -1.23217000E-14,  6.71684000E+04,
                       3.92206000E+00])),
        transport=gas_transport(geom='linear',
                                diam=4.1,
                                well_depth=208.999,
                                rot_relax=2.5))

species(name='C2H2(23)',
        atoms='C:2 H:2',
        thermo=(NASA([200.00, 1000.00],
                     [ 8.08680000E-01,  2.33616000E-02, -3.55172000E-05,
                       2.80153000E-08, -8.50075000E-12,  2.64290000E+04,
                       1.39397000E+01]),
                NASA([1000.00, 6000.00],
                     [ 4.65878000E+00,  4.88397000E-03, -1.60829000E-06,
                       2.46975000E-10, -1.38606000E-14,  2.57594000E+04,
                      -3.99838000E+00])),
        transport=gas_transport(geom='linear',
                                diam=4.1,
                                well_depth=208.999,
                                rot_relax=2.5))

species(name='H2CC(24)',
        atoms='C:2 H:2',
        thermo=(NASA([200.00, 1000.00],
                     [ 3.28155000E+00,  6.97643000E-03, -2.38528000E-06,
                      -1.21078000E-09,  9.82042000E-13,  4.83192000E+04,
                       5.92036000E+00]),
                NASA([1000.00, 6000.00],
                     [ 4.27807000E+00,  4.75623000E-03, -1.63007000E-06,
                       2.54623000E-10, -1.48860000E-14,  4.80140000E+04,
                       6.39979000E-01])),
        transport=gas_transport(geom='nonlinear',
                                diam=4.1,
                                well_depth=209.0,
                                rot_relax=2.5))

species(name='CH2(S)(25)',
        atoms='C:1 H:2',
        thermo=(NASA([100.00, 1442.35],
                     [ 4.10264395E+00, -1.44068619E-03,  5.45069573E-06,
                      -3.58002683E-09,  7.56194814E-13,  5.04005785E+04,
                      -4.11766577E-01]),
                NASA([1442.35, 5000.00],
                     [ 2.62646849E+00,  3.94763740E-03, -1.49924559E-06,
                       2.54540076E-10, -1.62956554E-14,  5.06917560E+04,
                       6.78382272E+00])),
        transport=gas_transport(geom='linear',
                                diam=3.8,
                                well_depth=144.0))

species(name='CH3O(27)',
        atoms='C:1 H:3 O:1',
        thermo=(NASA([200.00, 1000.00],
                     [ 3.71181000E+00, -2.80463000E-03,  3.76551000E-05,
                      -4.73072000E-08,  1.86588000E-11,  1.29570000E+03,
                       6.57241000E+00]),
                NASA([1000.00, 6000.00],
                     [ 4.75779000E+00,  7.44142000E-03, -2.69705000E-06,
                       4.38091000E-10, -2.63537000E-14,  3.78112000E+02,
                      -1.96680000E+00])),
        transport=gas_transport(geom='nonlinear',
                                diam=3.69,
                                well_depth=417.001,
                                dipole=1.7,
                                rot_relax=2.0))

species(name='CH2CO(28)',
        atoms='C:2 H:2 O:1',
        thermo=(NASA([200.00, 1000.00],
                     [ 2.13241000E+00,  1.81319000E-02, -1.74093000E-05,
                       9.35336000E-09, -2.01725000E-12, -7.14809000E+03,
                       1.33808000E+01]),
                NASA([1000.00, 6000.00],
                     [ 5.75871000E+00,  6.35124000E-03, -2.25955000E-06,
                       3.62322000E-10, -2.15856000E-14, -8.08533000E+03,
                      -4.96490000E+00])),
        transport=gas_transport(geom='nonlinear',
                                diam=3.97,
                                well_depth=436.0,
                                rot_relax=2.0))

species(name='C2H3(29)',
        atoms='C:2 H:3',
        thermo=(NASA([200.00, 1000.00],
                     [ 3.36378000E+00,  2.65766000E-04,  2.79621000E-05,
                      -3.72987000E-08,  1.51590000E-11,  3.44750000E+04,
                       7.91510000E+00]),
                NASA([1000.00, 6000.00],
                     [ 4.15027000E+00,  7.54021000E-03, -2.62998000E-06,
                       4.15974000E-10, -2.45408000E-14,  3.38566000E+04,
                       1.72812000E+00])),
        transport=gas_transport(geom='nonlinear',
                                diam=4.1,
                                well_depth=208.999,
                                rot_relax=1.0))

species(name='CH2OH(33)',
        atoms='C:1 H:3 O:1',
        thermo=(NASA([200.00, 1000.00],
                     [ 4.47834000E+00, -1.35070000E-03,  2.78485000E-05,
                      -3.64869000E-08,  1.47907000E-11, -3.50073000E+03,
                       3.30913000E+00]),
                NASA([1000.00, 6000.00],
                     [ 5.09314000E+00,  5.94761000E-03, -2.06497000E-06,
                       3.23008000E-10, -1.88126000E-14, -4.03410000E+03,
                      -1.84691000E+00])),
        transport=gas_transport(geom='nonlinear',
                                diam=3.69,
                                well_depth=417.001,
                                dipole=1.7,
                                rot_relax=2.0))

species(name='CH3CO(34)',
        atoms='C:2 H:3 O:1',
        thermo=(NASA([200.00, 1000.00],
                     [ 4.03587000E+00,  8.77295000E-04,  3.07100000E-05,
                      -3.92476000E-08,  1.52969000E-11, -2.68207000E+03,
                       7.86177000E+00]),
                NASA([1000.00, 6000.00],
                     [ 5.31372000E+00,  9.17378000E-03, -3.32204000E-06,
                       5.39475000E-10, -3.24524000E-14, -3.64504000E+03,
                      -1.67576000E+00])),
        transport=gas_transport(geom='nonlinear',
                                diam=3.97,
                                well_depth=436.0,
                                rot_relax=2.0))

species(name='F(37)',
        atoms='F:1',
        thermo=(NASA([298.00, 1400.00],
                     [ 2.90371000E+00, -6.35296000E-04,  2.64735000E-07,
                       7.69063000E-11, -5.45254000E-14,  8.67227000E+03,
                       2.70828000E+00]),
                NASA([1400.00, 3000.00],
                     [ 2.65117000E+00, -1.40130000E-04,  5.19236000E-08,
                      -8.84954000E-12,  5.90280000E-16,  8.75829000E+03,
                       4.07857000E+00])),
        transport=gas_transport(geom='atom',
                                diam=2.75,
                                well_depth=80.0))

species(name='HF(38)',
        atoms='F:1 H:1',
        thermo=(NASA([298.00, 1250.00],
                     [ 3.43657000E+00,  4.86021000E-04, -1.25240000E-06,
                       1.36475000E-09, -4.09574000E-13, -3.38001000E+04,
                       1.20682000E+00]),
                NASA([1250.00, 3000.00],
                     [ 2.78130000E+00,  1.03959000E-03, -2.41735000E-07,
                       2.68416000E-11, -1.09766000E-15, -3.35042000E+04,
                       5.01970000E+00])),
        transport=gas_transport(geom='linear',
                                diam=3.148,
                                well_depth=330.001,
                                dipole=1.92,
                                polar=2.46,
                                rot_relax=1.0))

species(name='CHF(39)',
        atoms='C:1 F:1 H:1',
        thermo=(NASA([298.00, 1300.00],
                     [ 3.34484000E+00,  2.35461000E-03,  1.93983000E-06,
                      -2.65251000E-09,  7.91169000E-13,  1.67661000E+04,
                       7.05286000E+00]),
                NASA([1300.00, 3000.00],
                     [ 4.48366000E+00,  1.74964000E-03, -5.04790000E-07,
                       1.08953000E-10, -9.87898000E-15,  1.62102000E+04,
                       2.89222000E-01])),
        transport=gas_transport(geom='nonlinear',
                                diam=4.123,
                                well_depth=262.0,
                                dipole=1.8))

species(name='CH2F2(40)',
        atoms='C:1 F:2 H:2',
        thermo=(NASA([10.00, 788.98],
                     [ 4.06909000E+00, -4.54455000E-03,  4.03365000E-05,
                      -4.87809000E-08,  1.90230000E-11, -5.55551000E+04,
                       6.40435000E+00]),
                NASA([788.98, 3000.00],
                     [ 1.30655000E+00,  1.54345000E-02, -9.00408000E-06,
                       2.50681000E-09, -2.68973000E-13, -5.53051000E+04,
                       1.78990000E+01])),
        transport=gas_transport(geom='nonlinear',
                                diam=4.123,
                                well_depth=262.0,
                                dipole=1.8))

species(name='CHF3(41)',
        atoms='C:1 F:3 H:1',
        thermo=(NASA([10.00, 615.11],
                     [ 4.06655000E+00, -5.69699000E-03,  7.11567000E-05,
                      -1.16193000E-07,  6.06504000E-11, -8.51503000E+04,
                       7.48265000E+00]),
                NASA([615.11, 3000.00],
                     [ 2.45498000E+00,  1.63704000E-02, -1.09138000E-05,
                       3.38161000E-09, -3.95687000E-13, -8.51713000E+04,
                       1.26925000E+01])),
        transport=gas_transport(geom='nonlinear',
                                diam=4.123,
                                well_depth=262.0,
                                dipole=1.8))

species(name='CF2(42)',
        atoms='C:1 F:2',
        thermo=(NASA([298.00, 1300.00],
                     [ 2.28591000E+00,  1.07608000E-02, -1.05382000E-05,
                       4.89881000E-09, -8.86384000E-13, -2.43407000E+04,
                       1.31348000E+01]),
                NASA([1300.00, 3000.00],
                     [ 5.33121000E+00,  1.97748000E-03, -9.60248000E-07,
                       2.10704000E-10, -1.59540000E-14, -2.51909000E+04,
                      -2.56367000E+00])),
        transport=gas_transport(geom='nonlinear',
                                diam=3.977,
                                well_depth=108.0))

species(name='CF3(44)',
        atoms='C:1 F:3',
        thermo=(NASA([10.00, 570.23],
                     [ 4.05587000E+00, -5.49380000E-03,  7.30062000E-05,
                      -1.34908000E-07,  7.85700000E-11, -5.81130000E+04,
                       8.13986000E+00]),
                NASA([570.23, 3000.00],
                     [ 3.53924000E+00,  1.18582000E-02, -8.75006000E-06,
                       2.89362000E-09, -3.54041000E-13, -5.82773000E+04,
                       8.38507000E+00])),
        transport=gas_transport(geom='nonlinear',
                                diam=4.32,
                                well_depth=121.0))

species(name='CH2F(45)',
        atoms='C:1 F:1 H:2',
        thermo=(NASA([10.00, 594.37],
                     [ 4.03338000E+00, -2.62849000E-03,  2.74227000E-05,
                      -3.89096000E-08,  1.85259000E-11, -5.11982000E+03,
                       5.20374000E+00]),
                NASA([594.37, 3000.00],
                     [ 2.59024000E+00,  8.57266000E-03, -4.60348000E-06,
                       1.22743000E-09, -1.29255000E-13, -4.97457000E+03,
                       1.11940000E+01])),
        transport=gas_transport(geom='nonlinear',
                                diam=4.123,
                                well_depth=262.0,
                                dipole=1.8))

species(name='CHFO(46)',
        atoms='C:1 F:1 H:1 O:1',
        thermo=(NASA([10.00, 745.32],
                     [ 4.05425000E+00, -3.75329000E-03,  3.18277000E-05,
                      -4.07297000E-08,  1.68956000E-11, -4.74230000E+04,
                       6.56837000E+00]),
                NASA([745.32, 3000.00],
                     [ 2.27714000E+00,  1.04751000E-02, -6.24845000E-06,
                       1.77292000E-09, -1.93455000E-13, -4.72884000E+04,
                       1.37455000E+01])),
        transport=gas_transport(geom='nonlinear',
                                diam=4.906,
                                well_depth=350.5))

species(name='CF3O(47)',
        atoms='C:1 F:3 O:1',
        thermo=(NASA([10.00, 596.52],
                     [ 3.93566000E+00,  3.68470000E-03,  5.89034000E-05,
                      -1.19115000E-07,  6.93035000E-11, -7.81010000E+04,
                       9.85551000E+00]),
                NASA([596.52, 3000.00],
                     [ 4.22715000E+00,  1.70524000E-02, -1.32403000E-05,
                       4.57332000E-09, -5.80483000E-13, -7.84084000E+04,
                       6.31482000E+00])),
        transport=gas_transport(geom='nonlinear',
                                diam=4.906,
                                well_depth=350.5))

species(name='CF2O(48)',
        atoms='C:1 F:2 O:1',
        thermo=(NASA([10.00, 584.63],
                     [ 4.06775000E+00, -6.14966000E-03,  6.73615000E-05,
                      -1.17623000E-07,  6.56735000E-11, -7.44006000E+04,
                       7.68563000E+00]),
                NASA([584.63, 3000.00],
                     [ 3.15981000E+00,  1.16963000E-02, -8.27581000E-06,
                       2.66621000E-09, -3.20585000E-13, -7.44933000E+04,
                       9.87819000E+00])),
        transport=gas_transport(geom='nonlinear',
                                diam=4.906,
                                well_depth=350.5))

species(name='CF(49)',
        atoms='C:1 F:1',
        thermo=(NASA([298.00, 1100.00],
                     [ 3.35384000E+00,  2.09097000E-04,  3.20774000E-06,
                      -3.66875000E-09,  1.19863000E-12,  2.86456000E+04,
                       6.33463000E+00]),
                NASA([1100.00, 3000.00],
                     [ 3.66497000E+00,  9.73681000E-04, -4.10982000E-07,
                       8.00629000E-11, -5.64981000E-15,  2.84621000E+04,
                       4.28163000E+00])),
        transport=gas_transport(geom='linear',
                                diam=3.635,
                                well_depth=94.2))

species(name='CFO(50)',
        atoms='C:1 F:1 O:1',
        thermo=(NASA([10.00, 668.19],
                     [ 4.02994000E+00, -2.08576000E-03,  2.20825000E-05,
                      -3.30628000E-08,  1.58410000E-11, -2.28950000E+04,
                       6.85532000E+00]),
                NASA([668.19, 3000.00],