units(length='cm', time='s', quantity='mol', act_energy='kcal/mol')

ideal_gas(name='gas',
          elements="H D T C Ci O Oi N Ne Ar He Si S F Cl Br I X",
          species="""N2          Ne          C2H5F(1)    O2(2)
                     H2O(3)      OH(4)       CH4(5)      H(6)
                     O(7)        H2(8)       HO2(11)     H2O2(12)
                     CO(13)      CO2(14)     HCO(15)     CH3(19)
                     CH2O(20)    HCCO(21)    C2H(22)     C2H2(23)
                     H2CC(24)    CH3O(27)    CH2CO(28)   C2H3(29)
                     C2H4(30)    F(37)       HF(38)      CH2F2(41)
                     CH2F(46)    CHFO(47)    CH2CHF(55)  C2H4F(61)
                     C2H4F(62)   CH2CF(69)   C2H2F(70)   CH2CFO(78)
                     CHF2(81)    C2H4(126)   CHO2(141)   CH3O2(159)
                     C2H5O(160)  C2H5O(170)  CHO2(171)   C2H2O(408)
                     S(600)      S(601)      C2H2O(607)  S(1159)
                     CHO3(1457)  S(1650)""",
          reactions='all',
          transport='Mix',
          initial_state=state(temperature=300.0, pressure=OneAtm))

#-------------------------------------------------------------------------------
# Element data
#-------------------------------------------------------------------------------

element(symbol='Ci', atomic_mass=13.003)
element(symbol='D', atomic_mass=2.014)
element(symbol='Oi', atomic_mass=17.999)
element(symbol='T', atomic_mass=3.016)
element(symbol='X', atomic_mass=195.083)
#-------------------------------------------------------------------------------
# Species data
#-------------------------------------------------------------------------------

species(name='N2',
        atoms='N:2',
        thermo=(NASA([200.00, 1000.00],
                     [ 3.53101000E+00, -1.23661000E-04, -5.02999000E-07,
                       2.43531000E-09, -1.40881000E-12, -1.04698000E+03,
                       2.96747000E+00]),
                NASA([1000.00, 6000.00],
                     [ 2.95258000E+00,  1.39690000E-03, -4.92632000E-07,
                       7.86010000E-11, -4.60755000E-15, -9.23949000E+02,
                       5.87189000E+00])),
        transport=gas_transport(geom='linear',
                                diam=3.621,
                                well_depth=97.53,
                                polar=1.76,
                                rot_relax=4.0))

species(name='Ne',
        atoms='Ne:1',
        thermo=(NASA([200.00, 1000.00],
                     [ 2.50000000E+00,  0.00000000E+00,  0.00000000E+00,
                       0.00000000E+00,  0.00000000E+00, -7.45375000E+02,
                       3.35532000E+00]),
                NASA([1000.00, 6000.00],
                     [ 2.50000000E+00,  0.00000000E+00,  0.00000000E+00,
                       0.00000000E+00,  0.00000000E+00, -7.45375000E+02,
                       3.35532000E+00])),
        transport=gas_transport(geom='atom',
                                diam=3.758,
                                well_depth=148.6))

species(name='C2H5F(1)',
        atoms='C:2 F:1 H:5',
        thermo=(NASA([10.00, 528.36],
                     [ 4.01083000E+00, -1.02926000E-03,  6.16557000E-05,
                      -9.19329000E-08,  4.49175000E-11, -3.41908000E+04,
                       7.26420000E+00]),
                NASA([528.36, 3000.00],
                     [ 4.78247000E-01,  2.57143000E-02, -1.42680000E-05,
                       3.86420000E-09, -4.09773000E-13, -3.38175000E+04,
                       2.20532000E+01])),
        transport=gas_transport(geom='nonlinear',
                                diam=4.583,
                                well_depth=312.2,
                                dipole=2.0))

species(name='O2(2)',
        atoms='O:2',
        thermo=(NASA([100.00, 1074.55],
                     [ 3.53732242E+00, -1.21571637E-03,  5.31620217E-06,
                      -4.89446388E-09,  1.45846240E-12, -1.03858849E+03,
                       4.68368186E+00]),
                NASA([1074.55, 5000.00],
                     [ 3.15382086E+00,  1.67804362E-03, -7.69974187E-07,
                       1.51275451E-10, -1.08782405E-14, -1.04081731E+03,
                       6.16755802E+00])),
        transport=gas_transport(geom='linear',
                                diam=3.467,
                                well_depth=106.7))

species(name='H2O(3)',
        atoms='H:2 O:1',
        thermo=(NASA([100.00, 1130.23],
                     [ 4.05763525E+00, -7.87929311E-04,  2.90875350E-06,
                      -1.47516305E-09,  2.12833045E-13, -3.02815866E+04,
                      -3.11361962E-01]),
                NASA([1130.23, 5000.00],
                     [ 2.84325449E+00,  2.75107891E-03, -7.81027841E-07,
                       1.07242800E-10, -5.79385414E-15, -2.99586146E+04,
                       5.91039696E+00])),
        transport=gas_transport(geom='nonlinear',
                                diam=2.641,
                                well_depth=809.102,
                                polar=1.76,
                                rot_relax=4.0))

species(name='OH(4)',
        atoms='H:1 O:1',
        thermo=(NASA([100.00, 1145.76],
                     [ 3.51456840E+00,  2.92733106E-05, -5.32150213E-07,
                       1.01947475E-09, -3.85939231E-13,  3.41425418E+03,
                       2.10434752E+00]),
                NASA([1145.76, 5000.00],
                     [ 3.07193716E+00,  6.04019964E-04, -1.39806623E-08,
                      -2.13440654E-11,  2.48061237E-15,  3.57938796E+03,
                       4.57801513E+00])),
        transport=gas_transport(geom='linear',
                                diam=2.75,
                                well_depth=80.0))

species(name='CH4(5)',
        atoms='C:1 H:4',
        thermo=(NASA([100.00, 1084.13],
                     [ 4.20541221E+00, -5.35553877E-03,  2.51122092E-05,
                      -2.13761398E-08,  5.97518145E-12, -1.01619432E+04,
                      -9.21268377E-01]),
                NASA([1084.13, 5000.00],
                     [ 9.08283160E-01,  1.14540571E-02, -4.57172207E-06,
                       8.29187907E-10, -5.66311813E-14, -9.71998208E+03,
                       1.39929956E+01])),
        transport=gas_transport(geom='nonlinear',
                                diam=3.746,
                                well_depth=141.4,
                                polar=2.6,
                                rot_relax=13.0))

species(name='H(6)',
        atoms='H:1',
        thermo=(NASA([100.00, 3598.68],
                     [ 2.50000000E+00, -1.84483083E-15,  2.71425215E-18,
                      -1.30027816E-21,  1.91033296E-25,  2.54742178E+04,
                      -4.44972896E-01]),
                NASA([3598.68, 5000.00],
                     [ 2.50000000E+00, -2.82484701E-12,  1.07036546E-15,
                      -1.78887662E-19,  1.11248406E-23,  2.54742178E+04,
                      -4.44972914E-01])),
        transport=gas_transport(geom='atom',
                                diam=2.05,
                                well_depth=145.0))

species(name='O(7)',
        atoms='O:1',
        thermo=(NASA([100.00, 3598.68],
                     [ 2.50000000E+00, -1.84483083E-15,  2.71425215E-18,
                      -1.30027816E-21,  1.91033296E-25,  2.92302441E+04,
                       5.12616427E+00]),
                NASA([3598.68, 5000.00],
                     [ 2.50000000E+00, -2.82484701E-12,  1.07036546E-15,
                      -1.78887662E-19,  1.11248406E-23,  2.92302441E+04,
                       5.12616426E+00])),
        transport=gas_transport(geom='atom',
                                diam=2.75,
                                well_depth=80.0))

species(name='H2(8)',
        atoms='H:2',
        thermo=(NASA([100.00, 1959.07],
                     [ 3.43536405E+00,  2.12710954E-04, -2.78626405E-07,
                       3.40268235E-10, -7.76034644E-14, -1.03135984E+03,
                      -3.90841705E+00]),
                NASA([1959.07, 5000.00],
                     [ 2.78817306E+00,  5.87631545E-04,  1.59014816E-07,
                      -5.52747855E-11,  4.34317420E-15, -5.96148537E+02,
                       1.12689783E-01])),
        transport=gas_transport(geom='linear',
                                diam=2.833,
                                well_depth=59.7))

species(name='HO2(11)',
        atoms='H:1 O:2',
        thermo=(NASA([200.00, 1000.00],
                     [ 4.30180000E+00, -4.74912000E-03,  2.11583000E-05,
                      -2.42764000E-08,  9.29225000E-12,  2.64018000E+02,
                       3.71666000E+00]),
                NASA([1000.00, 5000.00],
                     [ 4.17229000E+00,  1.88118000E-03, -3.46277000E-07,
                       1.94658000E-11,  1.76257000E-16,  3.10207000E+01,
                       2.95768000E+00])),
        transport=gas_transport(geom='nonlinear',
                                diam=3.458,
                                well_depth=107.4,
                                rot_relax=1.0))

species(name='H2O2(12)',
        atoms='H:2 O:2',
        thermo=(NASA([200.00, 1000.00],
                     [ 4.31515000E+00, -8.47391000E-04,  1.76404000E-05,
                      -2.26763000E-08,  9.08950000E-12, -1.77067000E+04,
                       3.27373000E+00]),
                NASA([1000.00, 6000.00],
                     [ 4.57977000E+00,  4.05326000E-03, -1.29845000E-06,
                       1.98211000E-10, -1.13969000E-14, -1.80072000E+04,
                       6.64971000E-01])),
        transport=gas_transport(geom='nonlinear',
                                diam=4.196,
                                well_depth=289.3))

species(name='CO(13)',
        atoms='C:1 O:1',
        thermo=(NASA([100.00, 1571.64],
                     [ 3.56837976E+00, -8.52123452E-04,  2.48917230E-06,
                      -1.56330523E-09,  3.13593773E-13, -1.42842549E+04,
                       3.57912263E+00]),
                NASA([1571.64, 5000.00],
                     [ 2.91307187E+00,  1.64657103E-03, -6.88611376E-07,
                       1.21036622E-10, -7.84012380E-15, -1.41808873E+04,
                       6.71042732E+00])),
        transport=gas_transport(geom='linear',
                                diam=3.69,
                                well_depth=91.7,
                                polar=1.76,
                                rot_relax=4.0))

species(name='CO2(14)',
        atoms='C:1 O:2',
        thermo=(NASA([200.00, 1000.00],
                     [ 2.35681000E+00,  8.98413000E-03, -7.12206000E-06,
                       2.45730000E-09, -1.42885000E-13, -4.83720000E+04,
                       9.90090000E+00]),
                NASA([1000.00, 6000.00],
                     [ 4.63651000E+00,  2.74146000E-03, -9.95898000E-07,
                       1.60387000E-10, -9.16199000E-15, -4.90249000E+04,
                      -1.93490000E+00])),
        transport=gas_transport(geom='linear',
                                diam=3.941,
                                well_depth=195.201))

species(name='HCO(15)',
        atoms='C:1 H:1 O:1',
        thermo=(NASA([200.00, 1000.00],
                     [ 4.23755000E+00, -3.32075000E-03,  1.40030000E-05,
                      -1.34240000E-08,  4.37416000E-12,  3.87241000E+03,
                       3.30835000E+00]),
                NASA([1000.00, 6000.00],
                     [ 3.92002000E+00,  2.52279000E-03, -6.71004000E-07,
                       1.05616000E-10, -7.43798000E-15,  3.65343000E+03,
                       3.58077000E+00])),
        transport=gas_transport(geom='nonlinear',
                                diam=3.59,
                                well_depth=498.002))

species(name='CH3(19)',
        atoms='C:1 H:3',
        thermo=(NASA([200.00, 1000.00],
                     [ 3.65718000E+00,  2.12660000E-03,  5.45839000E-06,
                      -6.61810000E-09,  2.46571000E-12,  1.64227000E+04,
                       1.67354000E+00]),
                NASA([1000.00, 6000.00],
                     [ 2.97812000E+00,  5.79785000E-03, -1.97558000E-06,
                       3.07298000E-10, -1.79174000E-14,  1.65095000E+04,
                       4.72248000E+00])),
        transport=gas_transport(geom='nonlinear',
                                diam=3.8,
                                well_depth=144.001))

species(name='CH2O(20)',
        atoms='C:1 H:2 O:1',
        thermo=(NASA([200.00, 1000.00],
                     [ 4.79372000E+00, -9.90833000E-03,  3.73220000E-05,
                      -3.79285000E-08,  1.31773000E-11, -1.43792000E+04,
                       6.02798000E-01]),
                NASA([1000.00, 6000.00],
                     [ 3.16953000E+00,  6.19321000E-03, -2.25056000E-06,
                       3.65976000E-10, -2.20149000E-14, -1.45487000E+04,
                       6.04208000E+00])),
        transport=gas_transport(geom='nonlinear',
                                diam=3.59,
                                well_depth=498.002,
                                rot_relax=2.0))

species(name='HCCO(21)',
        atoms='C:2 H:1 O:1',
        thermo=(NASA([200.00, 1000.00],
                     [ 1.87608000E+00,  2.21205000E-02, -3.58869000E-05,
                       3.05403000E-08, -1.01281000E-11,  2.01634000E+04,
                       1.36968000E+01]),
                NASA([1000.00, 6000.00],
                     [ 5.91479000E+00,  3.71409000E-03, -1.30137000E-06,
                       2.06473000E-10, -1.21477000E-14,  1.93596000E+04,
                      -5.50567000E+00])),
        transport=gas_transport(geom='nonlinear',
                                diam=2.5,
                                well_depth=150.001,
                                rot_relax=1.0))

species(name='C2H(22)',
        atoms='C:2 H:1',
        thermo=(NASA([200.00, 1000.00],
                     [ 2.89868000E+00,  1.32988000E-02, -2.80733000E-05,
                       2.89485000E-08, -1.07502000E-11,  6.70616000E+04,
                       6.18548000E+00]),
                NASA([1000.00, 6000.00],
                     [ 3.66270000E+00,  3.82492000E-03, -1.36633000E-06,
                       2.13455000E-10, -1.23217000E-14,  6.71684000E+04,
                       3.92206000E+00])),
        transport=gas_transport(geom='linear',
                                diam=4.1,
                                well_depth=209.001,
                                rot_relax=2.5))

species(name='C2H2(23)',
        atoms='C:2 H:2',
        thermo=(NASA([200.00, 1000.00],
                     [ 8.08680000E-01,  2.33616000E-02, -3.55172000E-05,
                       2.80153000E-08, -8.50075000E-12,  2.64290000E+04,
                       1.39397000E+01]),
                NASA([1000.00, 6000.00],
                     [ 4.65878000E+00,  4.88397000E-03, -1.60829000E-06,
                       2.46975000E-10, -1.38606000E-14,  2.57594000E+04,
                      -3.99838000E+00])),
        transport=gas_transport(geom='linear',
                                diam=4.1,
                                well_depth=209.001,
                                rot_relax=2.5))

species(name='H2CC(24)',
        atoms='C:2 H:2',
        thermo=(NASA([200.00, 1000.00],
                     [ 3.28155000E+00,  6.97643000E-03, -2.38528000E-06,
                      -1.21078000E-09,  9.82042000E-13,  4.83192000E+04,
                       5.92036000E+00]),
                NASA([1000.00, 6000.00],
                     [ 4.27807000E+00,  4.75623000E-03, -1.63007000E-06,
                       2.54623000E-10, -1.48860000E-14,  4.80140000E+04,
                       6.39979000E-01])),
        transport=gas_transport(geom='nonlinear',
                                diam=4.1,
                                well_depth=209.0,
                                rot_relax=2.5))

species(name='CH3O(27)',
        atoms='C:1 H:3 O:1',
        thermo=(NASA([200.00, 1000.00],
                     [ 3.71181000E+00, -2.80463000E-03,  3.76551000E-05,
                      -4.73072000E-08,  1.86588000E-11,  1.29570000E+03,
                       6.57241000E+00]),
                NASA([1000.00, 6000.00],
                     [ 4.75779000E+00,  7.44142000E-03, -2.69705000E-06,
                       4.38091000E-10, -2.63537000E-14,  3.78112000E+02,
                      -1.96680000E+00])),
        transport=gas_transport(geom='nonlinear',
                                diam=3.69,
                                well_depth=417.002,
                                dipole=1.7,
                                rot_relax=2.0))

species(name='CH2CO(28)',
        atoms='C:2 H:2 O:1',
        thermo=(NASA([200.00, 1000.00],
                     [ 2.13241000E+00,  1.81319000E-02, -1.74093000E-05,
                       9.35336000E-09, -2.01725000E-12, -7.14809000E+03,
                       1.33808000E+01]),
                NASA([1000.00, 6000.00],
                     [ 5.75871000E+00,  6.35124000E-03, -2.25955000E-06,
                       3.62322000E-10, -2.15856000E-14, -8.08533000E+03,
                      -4.96490000E+00])),
        transport=gas_transport(geom='nonlinear',
                                diam=3.97,
                                well_depth=436.001,
                                rot_relax=2.0))

species(name='C2H3(29)',
        atoms='C:2 H:3',
        thermo=(NASA([200.00, 1000.00],
                     [ 3.36378000E+00,  2.65766000E-04,  2.79621000E-05,
                      -3.72987000E-08,  1.51590000E-11,  3.44750000E+04,
                       7.91510000E+00]),
                NASA([1000.00, 6000.00],
                     [ 4.15027000E+00,  7.54021000E-03, -2.62998000E-06,
                       4.15974000E-10, -2.45408000E-14,  3.38566000E+04,
                       1.72812000E+00])),
        transport=gas_transport(geom='nonlinear',
                                diam=4.1,
                                well_depth=209.001,
                                rot_relax=1.0))

species(name='C2H4(30)',
        atoms='C:2 H:4',
        thermo=(NASA([200.00, 1000.00],
                     [ 3.95920000E+00, -7.57051000E-03,  5.70990000E-05,
                      -6.91588000E-08,  2.69884000E-11,  5.08978000E+03,
                       4.09730000E+00]),
                NASA([1000.00, 6000.00],
                     [ 3.99183000E+00,  1.04834000E-02, -3.71721000E-06,
                       5.94628000E-10, -3.53630000E-14,  4.26866000E+03,
                      -2.69082000E-01])),
        transport=gas_transport(geom='nonlinear',
                                diam=3.971,
                                well_depth=280.801,
                                rot_relax=1.5))

species(name='F(37)',
        atoms='F:1',
        thermo=(NASA([298.00, 1400.00],
                     [ 2.90371000E+00, -6.35296000E-04,  2.64735000E-07,
                       7.69063000E-11, -5.45254000E-14,  8.67227000E+03,
                       2.70828000E+00]),
                NASA([1400.00, 3000.00],
                     [ 2.65117000E+00, -1.40130000E-04,  5.19236000E-08,
                      -8.84954000E-12,  5.90280000E-16,  8.75829000E+03,
                       4.07857000E+00])),
        transport=gas_transport(geom='atom',
                                diam=2.75,
                                well_depth=80.0))

species(name='HF(38)',
        atoms='F:1 H:1',
        thermo=(NASA([298.00, 1250.00],
                     [ 3.43657000E+00,  4.86021000E-04, -1.25240000E-06,
                       1.36475000E-09, -4.09574000E-13, -3.38001000E+04,
                       1.20682000E+00]),
                NASA([1250.00, 3000.00],
                     [ 2.78130000E+00,  1.03959000E-03, -2.41735000E-07,
                       2.68416000E-11, -1.09766000E-15, -3.35042000E+04,
                       5.01970000E+00])),
        transport=gas_transport(geom='linear',
                                diam=3.148,
                                well_depth=330.001,
                                dipole=1.92,
                                polar=2.46,
                                rot_relax=1.0))

species(name='CH2F2(41)',
        atoms='C:1 F:2 H:2',
        thermo=(NASA([10.00, 788.98],
                     [ 4.06909000E+00, -4.54455000E-03,  4.03365000E-05,
                      -4.87809000E-08,  1.90230000E-11, -5.55551000E+04,
                       6.40435000E+00]),
                NASA([788.98, 3000.00],
                     [ 1.30655000E+00,  1.54345000E-02, -9.00408000E-06,
                       2.50681000E-09, -2.68973000E-13, -5.53051000E+04,
                       1.78990000E+01])),
        transport=gas_transport(geom='nonlinear',
                                diam=4.123,
                                well_depth=262.0,
                                dipole=1.8))

species(name='CH2F(46)',
        atoms='C:1 F:1 H:2',
        thermo=(NASA([10.00, 594.37],
                     [ 4.03338000E+00, -2.62849000E-03,  2.74227000E-05,
                      -3.89096000E-08,  1.85259000E-11, -5.11982000E+03,
                       5.20374000E+00]),
                NASA([594.37, 3000.00],
                     [ 2.59024000E+00,  8.57266000E-03, -4.60348000E-06,
                       1.22743000E-09, -1.29255000E-13, -4.97457000E+03,
                       1.11940000E+01])),
        transport=gas_transport(geom='nonlinear',
                                diam=4.123,
                                well_depth=262.0,
                                dipole=1.8))

species(name='CHFO(47)',
        atoms='C:1 F:1 H:1 O:1',
        thermo=(NASA([10.00, 745.32],
                     [ 4.05425000E+00, -3.75329000E-03,  3.18277000E-05,
                      -4.07297000E-08,  1.68956000E-11, -4.74230000E+04,
                       6.56837000E+00]),
                NASA([745.32, 3000.00],
                     [ 2.27714000E+00,  1.04751000E-02, -6.24845000E-06,
                       1.77292000E-09, -1.93455000E-13, -4.72884000E+04,
                       1.37455000E+01])),
        transport=gas_transport(geom='nonlinear',
                                diam=4.906,
                                well_depth=350.5))

species(name='CH2CHF(55)',
        atoms='C:2 F:1 H:3',
        thermo=(NASA([10.00, 619.71],
                     [ 4.09164000E+00, -7.37240000E-03,  7.45741000E-05,
                      -1.12982000E-07,  5.61696000E-11, -1.84073000E+04,
                       6.78145000E+00]),
                NASA([619.71, 3000.00],
                     [ 1.44203000E+00,  1.89088000E-02, -1.12569000E-05,
                       3.25441000E-09, -3.64262000E-13, -1.82551000E+04,
                       1.68744000E+01])),
        transport=gas_transport(geom='nonlinear',
                                diam=4.322,
                                well_depth=272.2,
                                dipole=1.4))

species(name='C2H4F(61)',
        atoms='C:2 F:1 H:4',
        thermo=(NASA([10.00, 1078.03],
                     [ 3.99845000E+00,  7.14341000E-03,  1.60323000E-05,
                      -2.00070000E-08,  6.54682000E-12, -9.10139000E+03,
                       8.71379000E+00]),
                NASA([1078.03, 3000.00],
                     [ 3.84792000E+00,  1.59784000E-02, -7.77703000E-06,
                       1.83859000E-09, -1.70814000E-13, -9.54986000E+03,
                       7.22073000E+00])),
        transport=gas_transport(geom='nonlinear',
                                diam=4.583,
                                well_depth=312.2,
                                dipole=2.0))

species(name='C2H4F(62)',
        atoms='C:2 F:1 H:4',
        thermo=(NASA([10.00, 888.92],
                     [ 3.90960000E+00,  7.83843000E-03,  1.54328000E-05,
                      -2.14834000E-08,  7.90131000E-12, -1.08141000E+04,
                       7.80299000E+00]),
                NASA([888.92, 3000.00],
                     [ 2.27498000E+00,  1.90930000E-02, -1.01380000E-05,
                       2.62844000E-09, -2.67692000E-13, -1.06775000E+04,
                       1.46301000E+01])),
        transport=gas_transport(geom='nonlinear',
                                diam=4.583,
                                well_depth=312.2,
                                dipole=2.0))

species(name='CH2CF(69)',
        atoms='C:2 F:1 H:2',
        thermo=(NASA([10.00, 523.26],
                     [ 4.06008000E+00, -5.78847000E-03,  7.22738000E-05,
                      -1.31050000E-07,  7.80971000E-11,  1.16268000E+04,
                       7.18025000E+00]),
                NASA([523.26, 3000.00],
                     [ 2.54000000E+00,  1.41591000E-02, -8.78068000E-06,
                       2.63244000E-09, -3.03932000E-13,  1.16719000E+04,
                       1.24399000E+01])),
        transport=gas_transport(geom='nonlinear',
                                diam=4.322,
                                well_depth=272.2,
                                dipole=1.4))

species(name='C2H2F(70)',
        atoms='C:2 F:1 H:2',
        thermo=(NASA([10.00, 520.68],
                     [ 4.07474000E+00, -7.31727000E-03,  8.55332000E-05,
                      -1.60174000E-07,  9.80295000E-11,  1.27317000E+04,
                       7.27636000E+00]),
                NASA([520.68, 3000.00],
                     [ 2.76270000E+00,  1.41259000E-02, -8.97853000E-06,
                       2.75266000E-09, -3.23509000E-13,  1.27143000E+04,
                       1.12707000E+01])),
        transport=gas_transport(geom='nonlinear',
                                diam=4.322,
                                well_depth=272.2,
                                dipole=1.4))

species(name='CH2CFO(78)',
        atoms='C:2 F:1 H:2 O:1',
        thermo=(NASA([10.00, 558.36],
                     [ 3.95484000E+00,  2.66306000E-03,  5.93929000E-05,
                      -1.15100000E-07,  6.74789000E-11, -3.14065000E+04,
                       8.78105000E+00]),
                NASA([558.36, 3000.00],
                     [ 3.00171000E+00,  1.96207000E-02, -1.33752000E-05,
                       4.27391000E-09, -5.17274000E-13, -3.14579000E+04,
                       1.14099000E+01])),
        transport=gas_transport(geom='nonlinear',
                                diam=4.583,
                                well_depth=312.2,
                                dipole=3.302,
                                polar=3.442,
                                rot_relax=1.0))

species(name='CHF2(81)',
        atoms='C:1 F:2 H:1',
        thermo=(NASA([10.00, 697.14],
                     [ 4.05476000E+00, -4.05670000E-03,  3.90133000E-05,
                      -5.51349000E-08,  2.50461000E-11, -3.08752000E+04,
                       7.58714000E+00]),
                NASA([697.14, 3000.00],
                     [ 2.58942000E+00,  1.08145000E-02, -6.89144000E-06,
                       2.06262000E-09, -2.34597000E-13, -3.08279000E+04,
                       1.30014000E+01])),
        transport=gas_transport(geom='nonlinear',
                                diam=4.123,
                                well_depth=262.0,
                                dipole=1.8))

species(name='C2H4(126)',
        atoms='C:2 H:4',
        thermo=(NASA([100.00, 990.23],
                     [ 3.73431757E+00,  2.34885973E-03,  2.20924335E-05,
                      -2.60629432E-08,  9.04790673E-12,  4.26511887E+04,
                       6.39831688E+00]),
                NASA([990.23, 5000.00],
                     [ 3.97023122E+00,  1.04688413E-02, -3.95152138E-06,
                       7.24018180E-10, -5.10037247E-14,  4.21596443E+04,
                       3.01641945E+00])),
        transport=gas_transport(geom='nonlinear',
                                diam=4.443,
                                well_depth=110.7))

species(name='CHO2(141)',
        atoms='C:1 H:1 O:2',
        thermo=(NASA([100.00, 1184.09],
                     [ 3.51544937E+00,  1.12655990E-02, -9.58080292E-06,
                       4.36315470E-09, -8.44574031E-13, -1.66722453E+04,
                       7.37033993E+00]),
                NASA([1184.09, 5000.00],
                     [ 5.09941570E+00,  5.91470522E-03, -2.80223446E-06,
                       5.46638388E-10, -3.87735405E-14, -1.70473527E+04,
                      -5.39013356E-01])),
        transport=gas_transport(geom='nonlinear',
                                diam=3.59,
                                well_depth=498.0,
                                rot_relax=2.0))

species(name='CH3O2(159)',
        atoms='C:1 H:3 O:2',
        thermo=(NASA([200.00, 1000.00],
                     [ 4.97170000E+00, -5.29357000E-03,  4.77334000E-05,
                      -5.77066000E-08,  2.22220000E-11, -1.29022000E+02,
                       2.81501000E+00]),
                NASA([1000.00, 6000.00],
                     [ 5.55530000E+00,  9.12236000E-03, -3.23852000E-06,
                       5.18714000E-10, -3.08834000E-14, -1.03569000E+03,
                      -3.99159000E+00])),
        transport=gas_transport(geom='nonlinear',
                                diam=3.69,
                                well_depth=417.0,
                                dipole=1.7,
                                rot_relax=2.0))

species(name='C2H5O(160)',
        atoms='C:2 H:5 O:1',
        thermo=(NASA([200.00, 1000.00],
                     [ 3.26906000E+00,  9.33563000E-03,  2.96317000E-05,
                      -4.53411000E-08,  1.88796000E-11, -2.95023000E+03,
                       1.04201000E+01]),
                NASA([1000.00, 6000.00],
                     [ 6.55054000E+00,  1.32526000E-02, -4.74726000E-06,
                       7.64699000E-10, -4.57008000E-14, -4.47192000E+03,
                      -9.61231000E+00])),
        transport=gas_transport(geom='nonlinear',
                                diam=4.53,