units(length='cm', time='s', quantity='mol', act_energy='kcal/mol')

ideal_gas(name='gas',
          elements="H D T C Ci O Oi N Ne Ar He Si S F Cl Br I X",
          species="""N2          Ne          C2H6(1)     O2(2)
                     C(3)        CH(4)       H(5)        O(6)
                     OH(7)       H2(8)       H2O(9)      HO2(12)
                     H2O2(13)    CO(14)      CO2(15)     HCO(16)
                     CH2(T)(17)  CH3(18)     CH2O(19)    HCCO(20)
                     C2H(21)     C2H2(22)    CH2(S)(24)  CH3O(26)
                     CH2CO(27)   C2H3(28)    C2H4(29)    CH4(30)
                     C2H5(31)    CH3O2(36)   C2H5O2(44)  C2H5O(45)
                     C2H5O(73)   CH2O2(123)  CHO2(143)   CHO2(206)
                     CHO3(330)   C1OO1(593)""",
          reactions='all',
          transport='Mix',
          initial_state=state(temperature=300.0, pressure=OneAtm))

#-------------------------------------------------------------------------------
# Element data
#-------------------------------------------------------------------------------

element(symbol='Ci', atomic_mass=13.003)
element(symbol='D', atomic_mass=2.014)
element(symbol='Oi', atomic_mass=17.999)
element(symbol='T', atomic_mass=3.016)
element(symbol='X', atomic_mass=195.083)
#-------------------------------------------------------------------------------
# Species data
#-------------------------------------------------------------------------------

species(name='N2',
        atoms='N:2',
        thermo=(NASA([200.00, 1000.00],
                     [ 3.53101000E+00, -1.23661000E-04, -5.02999000E-07,
                       2.43531000E-09, -1.40881000E-12, -1.04698000E+03,
                       2.96747000E+00]),
                NASA([1000.00, 6000.00],
                     [ 2.95258000E+00,  1.39690000E-03, -4.92632000E-07,
                       7.86010000E-11, -4.60755000E-15, -9.23949000E+02,
                       5.87189000E+00])),
        transport=gas_transport(geom='linear',
                                diam=3.621,
                                well_depth=97.53,
                                polar=1.76,
                                rot_relax=4.0))

species(name='Ne',
        atoms='Ne:1',
        thermo=(NASA([200.00, 1000.00],
                     [ 2.50000000E+00,  0.00000000E+00,  0.00000000E+00,
                       0.00000000E+00,  0.00000000E+00, -7.45375000E+02,
                       3.35532000E+00]),
                NASA([1000.00, 6000.00],
                     [ 2.50000000E+00,  0.00000000E+00,  0.00000000E+00,
                       0.00000000E+00,  0.00000000E+00, -7.45375000E+02,
                       3.35532000E+00])),
        transport=gas_transport(geom='atom',
                                diam=3.758,
                                well_depth=148.6))

species(name='C2H6(1)',
        atoms='C:2 H:6',
        thermo=(NASA([100.00, 981.59],
                     [ 3.74676652E+00,  4.47723699E-05,  4.07988753E-05,
                      -4.57447418E-08,  1.56857281E-11, -1.14740738E+04,
                       4.74118651E+00]),
                NASA([981.59, 5000.00],
                     [ 3.34681816E+00,  1.61752612E-02, -6.00980430E-06,
                       1.09626360E-09, -7.72338676E-14, -1.20941360E+04,
                       3.10485453E+00])),
        transport=gas_transport(geom='nonlinear',
                                diam=4.302,
                                well_depth=252.301,
                                rot_relax=1.5))

species(name='O2(2)',
        atoms='O:2',
        thermo=(NASA([100.00, 1074.56],
                     [ 3.53732118E+00, -1.21570202E-03,  5.31615358E-06,
                      -4.89440364E-09,  1.45843807E-12, -1.03858843E+03,
                       4.68368633E+00]),
                NASA([1074.56, 5000.00],
                     [ 3.15382774E+00,  1.67803224E-03, -7.69967755E-07,
                       1.51273954E-10, -1.08781177E-14, -1.04082031E+03,
                       6.16751905E+00])),
        transport=gas_transport(geom='linear',
                                diam=3.467,
                                well_depth=106.7))

species(name='C(3)',
        atoms='C:1',
        thermo=(NASA([100.00, 4996.86],
                     [ 2.50000000E+00,  4.30732087E-14, -5.28912510E-17,
                       2.10457488E-20, -2.57139738E-24,  8.54745247E+04,
                       3.65978421E+00]),
                NASA([4996.86, 5000.00],
                     [-4.86862231E+01,  1.90728012E-02,  8.49269033E-07,
                      -9.90485659E-10,  9.34419177E-14,  1.63971601E+05,
                       3.60312802E+02])),
        transport=gas_transport(geom='atom',
                                diam=3.298,
                                well_depth=71.4))

species(name='CH(4)',
        atoms='C:1 H:1',
        thermo=(NASA([100.00, 971.39],
                     [ 3.53296078E+00, -5.84101202E-05, -6.75318176E-07,
                       1.93818010E-09, -9.35413486E-13,  7.05679539E+04,
                       1.86651632E+00]),
                NASA([971.39, 5000.00],
                     [ 2.74761700E+00,  1.51395394E-03, -5.37637977E-07,
                       8.28596898E-11, -4.75170442E-15,  7.07989203E+04,
                       6.03604976E+00])),
        transport=gas_transport(geom='linear',
                                diam=2.75,
                                well_depth=80.0))

species(name='H(5)',
        atoms='H:1',
        thermo=(NASA([100.00, 4996.86],
                     [ 2.50000000E+00,  4.30732087E-14, -5.28912510E-17,
                       2.10457488E-20, -2.57139738E-24,  2.54742178E+04,
                      -4.44972896E-01]),
                NASA([4996.86, 5000.00],
                     [-4.86862231E+01,  1.90728012E-02,  8.49269033E-07,
                      -9.90485659E-10,  9.34419177E-14,  1.03971294E+05,
                       3.56208045E+02])),
        transport=gas_transport(geom='atom',
                                diam=2.05,
                                well_depth=145.0))

species(name='O(6)',
        atoms='O:1',
        thermo=(NASA([100.00, 4996.86],
                     [ 2.50000000E+00,  4.30732087E-14, -5.28912510E-17,
                       2.10457488E-20, -2.57139738E-24,  2.92302441E+04,
                       5.12616427E+00]),
                NASA([4996.86, 5000.00],
                     [-4.86862231E+01,  1.90728012E-02,  8.49269033E-07,
                      -9.90485659E-10,  9.34419177E-14,  1.07727320E+05,
                       3.61779183E+02])),
        transport=gas_transport(geom='atom',
                                diam=2.75,
                                well_depth=80.0))

species(name='OH(7)',
        atoms='H:1 O:1',
        thermo=(NASA([100.00, 1145.75],
                     [ 3.51456804E+00,  2.92773617E-05, -5.32163358E-07,
                       1.01949027E-09, -3.85945173E-13,  3.41425420E+03,
                       2.10434883E+00]),
                NASA([1145.75, 5000.00],
                     [ 3.07193980E+00,  6.04015701E-04, -1.39782948E-08,
                      -2.13446092E-11,  2.48065653E-15,  3.57938677E+03,
                       4.57800011E+00])),
        transport=gas_transport(geom='linear',
                                diam=2.75,
                                well_depth=80.0))

species(name='H2(8)',
        atoms='H:2',
        thermo=(NASA([100.00, 1959.07],
                     [ 3.43536403E+00,  2.12711126E-04, -2.78626796E-07,
                       3.40268542E-10, -7.76035403E-14, -1.03135984E+03,
                      -3.90841698E+00]),
                NASA([1959.07, 5000.00],
                     [ 2.78817514E+00,  5.87628848E-04,  1.59016078E-07,
                      -5.52750390E-11,  4.34319267E-15, -5.96149762E+02,
                       1.12677478E-01])),
        transport=gas_transport(geom='linear',
                                diam=2.833,
                                well_depth=59.7))

species(name='H2O(9)',
        atoms='H:2 O:1',
        thermo=(NASA([100.00, 1130.24],
                     [ 4.05763582E+00, -7.87935662E-04,  2.90877429E-06,
                      -1.47518785E-09,  2.12842652E-13, -3.02815866E+04,
                      -3.11363998E-01]),
                NASA([1130.24, 5000.00],
                     [ 2.84325062E+00,  2.75108520E-03, -7.81031348E-07,
                       1.07243608E-10, -5.79391987E-15, -2.99586128E+04,
                       5.91041898E+00])),
        transport=gas_transport(geom='nonlinear',
                                diam=2.641,
                                well_depth=809.102,
                                polar=1.76,
                                rot_relax=4.0))

species(name='HO2(12)',
        atoms='H:1 O:2',
        thermo=(NASA([100.00, 946.54],
                     [ 4.03690630E+00, -2.62732444E-03,  1.44313411E-05,
                      -1.57600675E-08,  5.57101689E-12,  1.90109214E+02,
                       4.75185337E+00]),
                NASA([946.54, 5000.00],
                     [ 4.00574570E+00,  2.20378740E-03, -6.71836985E-07,
                       1.22584543E-10, -9.25508027E-15, -1.45132074E+01,
                       3.78841973E+00])),
        transport=gas_transport(geom='nonlinear',
                                diam=3.458,
                                well_depth=107.4,
                                rot_relax=1.0))

species(name='H2O2(13)',
        atoms='H:2 O:2',
        thermo=(NASA([100.00, 949.13],
                     [ 3.81958537E+00,  2.11779154E-03,  9.00445649E-06,
                      -1.22079489E-08,  4.62905309E-12, -1.74416271E+04,
                       5.37616035E+00]),
                NASA([949.13, 5000.00],
                     [ 4.49699314E+00,  3.94809143E-03, -1.29258579E-06,
                       2.25568376E-10, -1.58454391E-14, -1.77812461E+04,
                       1.03172430E+00])),
        transport=gas_transport(geom='nonlinear',
                                diam=4.196,
                                well_depth=289.3))

species(name='CO(14)',
        atoms='C:1 O:1',
        thermo=(NASA([100.00, 1571.65],
                     [ 3.56837933E+00, -8.52119359E-04,  2.48916154E-06,
                      -1.56329526E-09,  3.13590826E-13, -1.42842549E+04,
                       3.57912422E+00]),
                NASA([1571.65, 5000.00],
                     [ 2.91308532E+00,  1.64655185E-03, -6.88601689E-07,
                       1.21034554E-10, -7.83996529E-15, -1.41808944E+04,
                       6.71034902E+00])),
        transport=gas_transport(geom='linear',
                                diam=3.69,
                                well_depth=91.7,
                                polar=1.76,
                                rot_relax=4.0))

species(name='CO2(15)',
        atoms='C:1 O:2',
        thermo=(NASA([100.00, 971.21],
                     [ 3.28048072E+00,  2.50988631E-03,  8.08247208E-06,
                      -1.21544426E-08,  4.74672847E-12, -4.85040775E+04,
                       5.96197047E+00]),
                NASA([971.21, 5000.00],
                     [ 4.68905086E+00,  2.51987719E-03, -9.08269181E-07,
                       1.77958142E-10, -1.36423276E-14, -4.90517565E+04,
                      -2.20341622E+00])),
        transport=gas_transport(geom='linear',
                                diam=3.941,
                                well_depth=195.201))

species(name='HCO(16)',
        atoms='C:1 H:1 O:1',
        thermo=(NASA([100.00, 1105.12],
                     [ 4.06159334E+00, -1.81950386E-03,  9.37895107E-06,
                      -8.24741906E-09,  2.33851000E-12,  3.91858619E+03,
                       3.98389239E+00]),
                NASA([1105.12, 5000.00],
                     [ 3.05335076E+00,  4.10464122E-03, -1.74961845E-06,
                       3.28531766E-10, -2.28985027E-14,  4.00252259E+03,
                       8.32037715E+00])),
        transport=gas_transport(geom='nonlinear',
                                diam=3.59,
                                well_depth=498.002))

species(name='CH2(T)(17)',
        atoms='C:1 H:2',
        thermo=(NASA([100.00, 1104.61],
                     [ 4.01192385E+00, -1.54978509E-04,  3.26297772E-06,
                      -2.40421779E-09,  5.69496640E-13,  4.58676802E+04,
                       5.33200586E-01]),
                NASA([1104.61, 5000.00],
                     [ 3.14983377E+00,  2.96674275E-03, -9.76055939E-07,
                       1.54115302E-10, -9.50338306E-15,  4.60581391E+04,
                       4.77807718E+00])),
        transport=gas_transport(geom='nonlinear',
                                diam=3.8,
                                well_depth=144.001))

species(name='CH3(18)',
        atoms='C:1 H:3',
        thermo=(NASA([100.00, 660.45],
                     [ 3.94800530E+00,  8.27594119E-04,  8.34933840E-06,
                      -9.82637590E-09,  3.80105408E-12,  1.64253714E+04,
                       3.36653491E-01]),
                NASA([660.45, 5000.00],
                     [ 3.22169563E+00,  5.22646055E-03, -1.64124828E-06,
                       2.58224436E-10, -1.62579260E-14,  1.65213099E+04,
                       3.53938179E+00])),
        transport=gas_transport(geom='nonlinear',
                                diam=3.8,
                                well_depth=144.001))

species(name='CH2O(19)',
        atoms='C:1 H:2 O:1',
        thermo=(NASA([100.00, 1041.97],
                     [ 4.13878234E+00, -4.69507523E-03,  2.25727878E-05,
                      -2.09846927E-08,  6.36110814E-12, -1.43493280E+04,
                       3.23829579E+00]),
                NASA([1041.97, 5000.00],
                     [ 2.36098256E+00,  7.66799517E-03, -3.19767730E-06,
                       6.04718486E-10, -4.27512649E-14, -1.42794931E+04,
                       1.04455545E+01])),
        transport=gas_transport(geom='nonlinear',
                                diam=3.59,
                                well_depth=498.002,
                                rot_relax=2.0))

species(name='HCCO(20)',
        atoms='C:2 H:1 O:1',
        thermo=(NASA([100.00, 1096.21],
                     [ 3.47173833E+00,  1.13765667E-02, -1.13080098E-05,
                       6.13950394E-09, -1.35087407E-12,  1.98870575E+04,
                       6.87336032E+00]),
                NASA([1096.21, 5000.00],
                     [ 5.39216761E+00,  4.36892447E-03, -1.71893300E-06,
                       3.07750553E-10, -2.08706037E-14,  1.94660259E+04,
                      -2.56797648E+00])),
        transport=gas_transport(geom='nonlinear',
                                diam=2.5,
                                well_depth=150.001,
                                rot_relax=1.0))

species(name='C2H(21)',
        atoms='C:2 H:1',
        thermo=(NASA([100.00, 918.72],
                     [ 3.01450462E+00,  1.39907558E-02, -3.08146458E-05,
                       3.10839269E-08, -1.10947311E-11,  6.69830274E+04,
                       5.75947888E+00]),
                NASA([918.72, 5000.00],
                     [ 3.14386782E+00,  4.98484784E-03, -2.32622567E-06,
                       4.08753085E-10, -2.55783527E-14,  6.73155580E+04,
                       7.08545609E+00])),
        transport=gas_transport(geom='linear',
                                diam=4.1,
                                well_depth=209.001,
                                rot_relax=2.5))

species(name='C2H2(22)',
        atoms='C:2 H:2',
        thermo=(NASA([100.00, 897.93],
                     [ 3.08746345E+00,  5.78549364E-03,  8.56418207E-06,
                      -1.72836642E-08,  7.83651012E-12,  2.62737785E+04,
                       4.46073558E+00]),
                NASA([897.93, 5000.00],
                     [ 5.89063785E+00,  2.09063403E-03,  4.87971355E-08,
                      -5.66785268E-11,  4.14985730E-15,  2.54159080E+04,
                      -1.07349133E+01])),
        transport=gas_transport(geom='linear',
                                diam=4.1,
                                well_depth=209.001,
                                rot_relax=2.5))

species(name='CH2(S)(24)',
        atoms='C:1 H:2',
        thermo=(NASA([100.00, 1442.38],
                     [ 4.10264141E+00, -1.44066067E-03,  5.45062471E-06,
                      -3.57995655E-09,  7.56172539E-13,  5.04005786E+04,
                      -4.11757144E-01]),
                NASA([1442.38, 5000.00],
                     [ 2.62652132E+00,  3.94755936E-03, -1.49920508E-06,
                       2.54531240E-10, -1.62949664E-14,  5.06917293E+04,
                       6.78351705E+00])),
        transport=gas_transport(geom='nonlinear',
                                diam=3.8,
                                well_depth=144.001))

species(name='CH3O(26)',
        atoms='C:1 H:3 O:1',
        thermo=(NASA([100.00, 959.55],
                     [ 3.95320740E+00, -3.81930031E-03,  3.45425807E-05,
                      -3.89338487E-08,  1.37891704E-11,  1.21482171E+03,
                       4.78503951E+00]),
                NASA([959.55, 5000.00],
                     [ 4.29956033E+00,  7.31081621E-03, -2.51254203E-06,
                       4.67580652E-10, -3.45468801E-14,  5.69494760E+02,
                       1.12073087E-01])),
        transport=gas_transport(geom='nonlinear',
                                diam=3.69,
                                well_depth=417.002,
                                dipole=1.7,
                                rot_relax=2.0))

species(name='CH2CO(27)',
        atoms='C:2 H:2 O:1',
        thermo=(NASA([100.00, 954.86],
                     [ 3.48301859E+00,  8.32989607E-03,  5.93418711E-06,
                      -1.33939552E-08,  5.73133718E-12, -7.31353165E+03,
                       6.51898203E+00]),
                NASA([954.86, 5000.00],
                     [ 5.88245494E+00,  5.80172746E-03, -1.91265890E-06,
                       3.35917356E-10, -2.37397937E-14, -8.11472987E+03,
                      -6.74200923E+00])),
        transport=gas_transport(geom='nonlinear',
                                diam=3.97,
                                well_depth=436.001,
                                rot_relax=2.0))

species(name='C2H3(28)',
        atoms='C:2 H:3',
        thermo=(NASA([100.00, 933.67],
                     [ 3.83067508E+00, -1.47597090E-03,  3.08990812E-05,
                      -3.80460071E-08,  1.43163494E-11,  3.45242409E+04,
                       5.61957462E+00]),
                NASA([933.67, 5000.00],
                     [ 5.36093531E+00,  5.27331016E-03, -1.31951824E-06,
                       2.21544796E-10, -1.68751999E-14,  3.36585527E+04,
                      -4.76369292E+00])),
        transport=gas_transport(geom='nonlinear',
                                diam=4.1,
                                well_depth=209.001,
                                rot_relax=1.0))

species(name='C2H4(29)',
        atoms='C:2 H:4',
        thermo=(NASA([100.00, 946.00],
                     [ 3.98878470E+00, -6.74743049E-03,  5.04409193E-05,
                      -5.70759611E-08,  2.04951850E-11,  5.04704645E+03,
                       3.80485237E+00]),
                NASA([946.00, 5000.00],
                     [ 4.59014174E+00,  8.72736651E-03, -2.66501374E-06,
                       4.81729669E-10, -3.60706330E-14,  4.12705236E+03,
                      -3.32413356E+00])),
        transport=gas_transport(geom='nonlinear',
                                diam=3.971,
                                well_depth=280.801,
                                rot_relax=1.5))

species(name='CH4(30)',
        atoms='C:1 H:4',
        thermo=(NASA([100.00, 1084.12],
                     [ 4.20541378E+00, -5.35555685E-03,  2.51122700E-05,
                      -2.13762147E-08,  5.97521149E-12, -1.01619432E+04,
                      -9.21274032E-01]),
                NASA([1084.12, 5000.00],
                     [ 9.08274117E-01,  1.14540720E-02, -4.57173047E-06,
                       8.29189859E-10, -5.66313411E-14, -9.71997811E+03,
                       1.39930469E+01])),
        transport=gas_transport(geom='nonlinear',
                                diam=3.746,
                                well_depth=141.4,
                                polar=2.6,
                                rot_relax=13.0))

species(name='C2H5(31)',
        atoms='C:2 H:5',
        thermo=(NASA([100.00, 967.57],
                     [ 3.69274383E+00,  1.87291497E-03,  3.11944951E-05,
                      -3.71204162E-08,  1.32023608E-11,  1.31683449E+04,
                       7.07159578E+00]),
                NASA([967.57, 5000.00],
                     [ 4.21413833E+00,  1.22657480E-02, -4.37063305E-06,
                       7.87976411E-10, -5.56030769E-14,  1.24800674E+04,
                       1.53801748E+00])),
        transport=gas_transport(geom='nonlinear',
                                diam=4.302,
                                well_depth=252.301,
                                rot_relax=1.5))

species(name='CH3O2(36)',
        atoms='C:1 H:3 O:2',
        thermo=(NASA([100.00, 1001.46],
                     [ 3.63774255E+00,  3.81133599E-03,  2.14546762E-05,
                      -2.68374659E-08,  9.49426091E-12,  2.47917964E+02,
                       9.81738582E+00]),
                NASA([1001.46, 5000.00],
                     [ 4.74146834E+00,  1.00949837E-02, -3.97184742E-06,
                       7.49803210E-10, -5.38580351E-14, -5.09317298E+02,
                       1.81400564E+00])),
        transport=gas_transport(geom='nonlinear',
                                diam=3.69,
                                well_depth=417.0,
                                dipole=1.7,
                                rot_relax=2.0))

species(name='C2H5O2(44)',
        atoms='C:2 H:5 O:2',
        thermo=(NASA([100.00, 1009.29],
                     [ 2.88894813E+00,  1.85232109E-02,  1.04544957E-05,
                      -2.35202729E-08,  9.42790058E-12, -4.26635652E+03,
                       1.50608573E+01]),
                NASA([1009.29, 5000.00],
                     [ 7.15146325E+00,  1.56281986E-02, -6.04672744E-06,
                       1.12072322E-09, -7.93643119E-14, -5.83975388E+03,
                      -9.07477933E+00])),
        transport=gas_transport(geom='nonlinear',
                                diam=4.037,
                                well_depth=395.0,
                                dipole=1.3,
                                rot_relax=1.0))

species(name='C2H5O(45)',
        atoms='C:2 H:5 O:1',
        thermo=(NASA([100.00, 1075.81],
                     [ 3.13417216E+00,  1.54298578E-02,  5.47067303E-06,
                      -1.32609053E-08,  4.93299901E-12, -3.18287876E+03,
                       1.10477418E+01]),
                NASA([1075.81, 5000.00],
                     [ 5.34722669E+00,  1.54987978E-02, -6.19438421E-06,
                       1.13688465E-09, -7.87698143E-14, -4.13920126E+03,
                      -2.02228562E+00])),
        transport=gas_transport(geom='nonlinear',
                                diam=4.53,
                                well_depth=362.6,
                                rot_relax=1.5))

species(name='C2H5O(73)',
        atoms='C:2 H:5 O:1',
        thermo=(NASA([100.00, 1456.27],
                     [ 3.02890329E+00,  2.15269831E-02, -1.29599502E-05,
                       4.29879913E-09, -6.28487741E-13, -4.74445182E+03,
                       1.18007375E+01]),
                NASA([1456.27, 5000.00],
                     [ 5.53910695E+00,  1.46320810E-02, -5.85798547E-06,
                       1.04757882E-09, -7.03446429E-14, -5.47555691E+03,
                      -1.25306937E+00])),
        transport=gas_transport(geom='nonlinear',
                                diam=4.53,
                                well_depth=362.6,
                                rot_relax=1.5))

species(name='CH2O2(123)',
        atoms='C:1 H:2 O:2',
        thermo=(NASA([100.00, 1502.37],
                     [ 4.27778650E+00, -1.80116868E-03,  2.07567069E-05,
                      -1.64548376E-08,  3.76037236E-12,  5.25596694E+03,
                       7.17788444E+00]),
                NASA([1502.37, 5000.00],
                     [ 2.16894970E+00,  1.55413510E-02, -8.26778979E-06,
                       1.62053274E-09, -1.12062202E-13,  4.56606567E+03,
                       1.38053103E+01])),
        transport=gas_transport(geom='nonlinear',
                                diam=5.898,
                                well_depth=436.691))

species(name='CHO2(143)',
        atoms='C:1 H:1 O:2',
        thermo=(NASA([100.00, 1184.06],
                     [ 3.51544740E+00,  1.12656180E-02, -9.58085219E-06,
                       4.36320061E-09, -8.44588026E-13, -1.66722452E+04,
                       7.37034735E+00]),
                NASA([1184.06, 5000.00],
                     [ 5.09940383E+00,  5.91472641E-03, -2.80224712E-06,
                       5.46641456E-10, -3.87737999E-14, -1.70473480E+04,
                      -5.38947308E-01])),
        transport=gas_transport(geom='nonlinear',
                                diam=3.59,
                                well_depth=498.0,
                                rot_relax=2.0))

species(name='CHO2(206)',
        atoms='C:1 H:1 O:2',
        thermo=(NASA([100.00, 958.31],
                     [ 3.56896655E+00,  5.44974316E-03,  1.00497119E-05,
                      -1.82764146E-08,  7.65435183E-12, -2.33428547E+04,
                       8.03340135E+00]),
                NASA([958.31, 5000.00],
                     [ 6.76289419E+00,  2.19776401E-03, -6.37066950E-07,
                       1.33540601E-10, -1.15913455E-14, -2.44178418E+04,
                      -9.65427510E+00])),
        transport=gas_transport(geom='nonlinear',
                                diam=3.59,
                                well_depth=498.0,
                                rot_relax=2.0))

species(name='CHO3(330)',
        atoms='C:1 H:1 O:3',
        thermo=(NASA([100.00, 968.19],
                     [ 3.28600284E+00,  9.07592876E-03,  1.53508614E-05,
                      -2.86373310E-08,  1.19714156E-11, -4.58350940E+04,
                       1.10209960E+01]),
                NASA([968.19, 5000.00],
                     [ 8.68695484E+00,  3.22534562E-03, -1.09070683E-06,
                       2.46287817E-10, -2.15813016E-14, -4.76525416E+04,
                      -1.88457197E+01])),
        transport=gas_transport(geom='nonlinear',
                                diam=5.425,
                                well_depth=432.363))

species(name='C1OO1(593)',
        atoms='C:1 H:2 O:2',
        thermo=(NASA([100.00, 885.27],
                     [ 3.54026134E+00, -1.77414879E-02,  1.31408022E-04,
                      -1.83768841E-07,  7.77218406E-11, -1.97381875E+03,
                       7.10242190E+00]),
                NASA([885.27, 5000.00],
                     [ 2.11793784E+01, -2.37542829E-02,  1.67402592E-05,
                      -3.39216318E-09,  2.31190418E-13, -7.98437060E+03,
                      -9.21549862E+01])),
        transport=gas_transport(geom='nonlinear',
                                diam=5.143,
                                well_depth=362.248))

#-------------------------------------------------------------------------------
# Reaction data
#-------------------------------------------------------------------------------

# Reaction 1
chebyshev_reaction('CH3(18) + CH3(18) (+ M) <=> C2H6(1) (+ M)',
                   Tmin=300.0, Tmax=2500.0,
                   Pmin=(0.01, 'atm'), Pmax=(98.692, 'atm'),
                   coeffs=[[ 1.29200e+01,  3.62000e-01, -7.08300e-02,  6.11700e-03],
                           [-8.18400e-01,  5.78800e-01, -8.39700e-02, -3.66300e-03],
                           [-5.09100e-01,  3.30600e-01, -9.97000e-03, -1.32100e-02],
                           [-2.69300e-01,  1.44100e-01,  2.05500e-02, -7.71200e-03],
                           [-1.36700e-01,  4.82200e-02,  1.88300e-02, -2.34100e-04],
                           [-6.66300e-02,  1.07400e-02,  9.22300e-03,  2.51400e-03]])

# Reaction 2
chebyshev_reaction('O2(2) + CH3(18) (+ M) <=> CH3O2(36) (+ M)',
                   Tmin=300.0, Tmax=2500.0,
                   Pmin=(0.01, 'atm'), Pmax=(98.692, 'atm'),
                   coeffs=[[ 1.05200e+01,  1.28700e+00, -2.07700e-01, -6.34300e-03],
                           [-5.21200e-01,  5.79100e-01,  1.17600e-01, -1.93900e-02],
                           [-4.53600e-01,  7.76100e-02,  5.75500e-02,  1.26100e-02],
                           [-1.57200e-01, -9.97800e-04,  8.00700e-03,  5.51600e-03],
                           [-5.03600e-02,  2.64300e-03, -4.74200e-03, -1.53100e-04],
                           [ 8.64200e-03, -1.29700e-02, -1.82700e-03,  9.71000e-06]])

# Reaction 3
reaction('CH3(18) + C2H6(1) <=> CH4(30) + C2H5(31)', [5.600000e+10, 0.0, 9.42],
         options='duplicate')

# Reaction 4
reaction('CH3(18) + C2H6(1) <=> CH4(30) + C2H5(31)', [8.299000e+14, 0.0, 22.26],
         options='duplicate')

# Reaction 5
reaction('CH3(18) + C2H5(31) <=> CH4(30) + C2H4(29)', [9.000000e+11, 0.0, 0.0])

# Reaction 6
reaction('CH(4) + C2H6(1) <=> CH3(18) + C2H4(29)', [1.077000e+14, 0.0, -0.262])

# Reaction 7
reaction('C2H5(31) + C2H5(31) <=> C2H4(29) + C2H6(1)', [6.900000e+13, -0.35, 0.0])

# Reaction 8
reaction('CH3(18) + CH3(18) <=> H(5) + C2H5(31)', [7.621000e+12, 0.1, 10.6])

# Reaction 9
reaction('CH(4) + CH4(30) <=> H(5) + C2H4(29)', [3.000000e+13, 0.0, -0.397])

# Reaction 10
chebyshev_reaction('H(5) + C2H5(31) (+ M) <=> C2H6(1) (+ M)',
                   Tmin=300.0, Tmax=2500.0,
                   Pmin=(0.01, 'atm'), Pmax=(98.692, 'atm'),