units(length='cm', time='s', quantity='mol', act_energy='kcal/mol')

ideal_gas(name='gas',
          elements="H D T C Ci O Oi N Ne Ar He Si S F Cl Br I X",
          species="""N2          Ne          C2H5F(1)    O2(2)
                     H2O(3)      CH4(4)      OH(5)       H(6)
                     O(7)        H2(8)       HO2(9)      H2O2(10)
                     CO(11)      CO2(12)     HCO(13)     CH(14)
                     CH2(T)(15)  CH3(16)     CH2O(17)    HCCO(18)
                     C2H(19)     C2H2(20)    H2CC(21)    CH2(S)(22)
                     CH3O(23)    CH2CO(24)   C2H3(25)    C2H4(26)
                     C2H6(27)    C2H5(28)    CH2OH(29)   CH3CO(30)
                     F(31)       HF(32)      CH3F(33)    CHF(34)
                     CH2F2(35)   CH2F(36)    CHFO(37)    CF(38)
                     CFO(39)     CH2CHF(40)  CH2CF2(41)  C2HF(42)
                     C2H2F2(43)  C2H4F(44)   C2H4F(45)   C2H3F2(46)
                     C2H3F2(47)  C2H3F2(48)  CH2CF(49)   C2H2F(50)
                     C2HF2(51)   CF2CH(52)   CH2CFO(53)  CHF2(54)
                     C2H3F(55)   C2H4(56)    CHO2(57)    CH3O2(58)
                     C2H5O(59)   CH2O2(60)   CHO2(61)    S(62)
                     C2H3F(63)   C2H3FO(64)  C2H4FO(65)  C2H2F2(66)
                     C2H3FO(67)  C3H7(68)    CH2O2(69)   C4H5(70)
                     C4H5(71)    C2H2O(72)   C4H3(73)    C2H2FO(74)
                     S(75)       C2H3O(76)   FC1CO1(77)  C2HFO(78)
                     C2H2FO(79)  S(80)       C2H2O(81)   S(82)
                     C3H4F(83)   CHFO2(84)   C3H6F(85)   C3H5(86)
                     C3H5(87)    C3H5(88)    C3H4F(89)   C3H4F(90)
                     CHF2O2(91)  C3H2F(92)   C2H2F2(93)  S(94)
                     C#CC(95)    CHO3(96)    CFO2(97)    CO2(98)
                     CH2O3(99)   C2F(100)    C2HF(101)   C#CCF(102)
                     C3H3(103)   C3H4F(104)  C4H4(105)   C4H5(106)
                     C3H4F(107)  C3H4F(108)  C3H3F(109)  C3H3F(110)
                     C3H3F(111)  C3H3F(112)  C3H3F(113)  C1OO1(114)
                     C3H3F(115)  C3H2F(116)  C3H4(117)   C5H5(118)
                     C5H5(119)   C3H4(120)   C3H3(121)   C5H5(122)
                     C5H4(123)   S(124)      C5H5(125)   C5H3(126)
                     C4H5(127)   C3H4F(128)  C5H7(129)   S(130)
                     S(131)      C3H3F(132)  S(133)      S(134)
                     C5H4(135)   C6H9F(136)  C6H9F(137)  C5H7(138)
                     C5H4(139)   C4H4F(140)  C4H3(141)   C4H4(142)
                     C4H4(143)   C5H5(144)   C4H5(145)   C4H5(146)
                     C4H5(147)   C5H5(148)   CFO3(149)   C4H4F(150)
                     C4H4F(151)  C4H3(152)   C5H4(153)   C5H5(154)
                     C4H2(155)   C4H(156)    C4H2(157)   C5H5(158)
                     C5H4(159)   C5H5(160)   C5H4(161)   C5H5(162)
                     C5H5(163)   C5H4(164)   C5H5(165)   C5H4(166)
                     S(167)      C5H3(168)   C5H4(169)   C5H5(170)
                     C6H9F(171)  C5H3(172)   C5H4(173)   C5H4(174)
                     C5H4(175)   C5H5(176)   C5H4(177)   C2O3(178)
                     CHF3(179)   CF2(180)    CF3(181)    CF3O(182)
                     CF2O(183)   C2HF3(184)  C2F4(185)   S(186)
                     S(187)      C2HF4(188)  F2(189)     FO2(190)
                     CHFO2(191)  CHFO2(192)  CF2O2(193)  S(194)
                     S(195)      CHF2O(196)  CF2O2(197)  OF(198)
                     O2(199)     CHF2O(200)  CHF3O(201)  S(202)
                     S(203)      C2HF3(204)  S(205)      CF3O2(206)
                     S(207)      S(208)      S(209)      S(210)
                     CF2O2(211)  S(212)      C2HFO(213)  CHFO(214)
                     S(215)      S(216)      S(217)      S(218)
                     S(219)""",
          reactions='all',
          transport='Mix',
          initial_state=state(temperature=300.0, pressure=OneAtm))

#-------------------------------------------------------------------------------
# Element data
#-------------------------------------------------------------------------------

element(symbol='Ci', atomic_mass=13.003)
element(symbol='D', atomic_mass=2.014)
element(symbol='Oi', atomic_mass=17.999)
element(symbol='T', atomic_mass=3.016)
element(symbol='X', atomic_mass=195.083)
#-------------------------------------------------------------------------------
# Species data
#-------------------------------------------------------------------------------

species(name='N2',
        atoms='N:2',
        thermo=(NASA([200.00, 1000.00],
                     [ 3.53101000E+00, -1.23661000E-04, -5.02999000E-07,
                       2.43531000E-09, -1.40881000E-12, -1.04698000E+03,
                       2.96747000E+00]),
                NASA([1000.00, 6000.00],
                     [ 2.95258000E+00,  1.39690000E-03, -4.92632000E-07,
                       7.86010000E-11, -4.60755000E-15, -9.23949000E+02,
                       5.87189000E+00])),
        transport=gas_transport(geom='linear',
                                diam=3.621,
                                well_depth=97.53,
                                polar=1.76,
                                rot_relax=4.0))

species(name='Ne',
        atoms='Ne:1',
        thermo=(NASA([200.00, 1000.00],
                     [ 2.50000000E+00,  0.00000000E+00,  0.00000000E+00,
                       0.00000000E+00,  0.00000000E+00, -7.45375000E+02,
                       3.35532000E+00]),
                NASA([1000.00, 6000.00],
                     [ 2.50000000E+00,  0.00000000E+00,  0.00000000E+00,
                       0.00000000E+00,  0.00000000E+00, -7.45375000E+02,
                       3.35532000E+00])),
        transport=gas_transport(geom='atom',
                                diam=3.758,
                                well_depth=148.6))

species(name='C2H5F(1)',
        atoms='C:2 F:1 H:5',
        thermo=(NASA([10.00, 528.36],
                     [ 4.01083000E+00, -1.02926000E-03,  6.16557000E-05,
                      -9.19329000E-08,  4.49175000E-11, -3.41908000E+04,
                       7.26420000E+00]),
                NASA([528.36, 3000.00],
                     [ 4.78247000E-01,  2.57143000E-02, -1.42680000E-05,
                       3.86420000E-09, -4.09773000E-13, -3.38175000E+04,
                       2.20532000E+01])),
        transport=gas_transport(geom='nonlinear',
                                diam=4.583,
                                well_depth=312.2,
                                dipole=2.0))

species(name='O2(2)',
        atoms='O:2',
        thermo=(NASA([100.00, 1074.55],
                     [ 3.53732242E+00, -1.21571637E-03,  5.31620217E-06,
                      -4.89446388E-09,  1.45846240E-12, -1.03858849E+03,
                       4.68368186E+00]),
                NASA([1074.55, 5000.00],
                     [ 3.15382086E+00,  1.67804362E-03, -7.69974187E-07,
                       1.51275451E-10, -1.08782405E-14, -1.04081731E+03,
                       6.16755802E+00])),
        transport=gas_transport(geom='linear',
                                diam=3.467,
                                well_depth=106.7))

species(name='H2O(3)',
        atoms='H:2 O:1',
        thermo=(NASA([100.00, 1130.23],
                     [ 4.05763525E+00, -7.87929311E-04,  2.90875350E-06,
                      -1.47516305E-09,  2.12833045E-13, -3.02815866E+04,
                      -3.11361962E-01]),
                NASA([1130.23, 5000.00],
                     [ 2.84325449E+00,  2.75107891E-03, -7.81027841E-07,
                       1.07242800E-10, -5.79385414E-15, -2.99586146E+04,
                       5.91039696E+00])),
        transport=gas_transport(geom='nonlinear',
                                diam=2.641,
                                well_depth=809.102,
                                polar=1.76,
                                rot_relax=4.0))

species(name='CH4(4)',
        atoms='C:1 H:4',
        thermo=(NASA([100.00, 1084.13],
                     [ 4.20541221E+00, -5.35553877E-03,  2.51122092E-05,
                      -2.13761398E-08,  5.97518145E-12, -1.01619432E+04,
                      -9.21268377E-01]),
                NASA([1084.13, 5000.00],
                     [ 9.08283160E-01,  1.14540571E-02, -4.57172207E-06,
                       8.29187907E-10, -5.66311813E-14, -9.71998208E+03,
                       1.39929956E+01])),
        transport=gas_transport(geom='nonlinear',
                                diam=3.746,
                                well_depth=141.4,
                                polar=2.6,
                                rot_relax=13.0))

species(name='OH(5)',
        atoms='H:1 O:1',
        thermo=(NASA([100.00, 1145.76],
                     [ 3.51456840E+00,  2.92733106E-05, -5.32150213E-07,
                       1.01947475E-09, -3.85939231E-13,  3.41425418E+03,
                       2.10434752E+00]),
                NASA([1145.76, 5000.00],
                     [ 3.07193716E+00,  6.04019964E-04, -1.39806623E-08,
                      -2.13440654E-11,  2.48061237E-15,  3.57938796E+03,
                       4.57801513E+00])),
        transport=gas_transport(geom='linear',
                                diam=2.75,
                                well_depth=80.0))

species(name='H(6)',
        atoms='H:1',
        thermo=(NASA([100.00, 3598.68],
                     [ 2.50000000E+00, -1.84483083E-15,  2.71425215E-18,
                      -1.30027816E-21,  1.91033296E-25,  2.54742178E+04,
                      -4.44972896E-01]),
                NASA([3598.68, 5000.00],
                     [ 2.50000000E+00, -2.82484701E-12,  1.07036546E-15,
                      -1.78887662E-19,  1.11248406E-23,  2.54742178E+04,
                      -4.44972914E-01])),
        transport=gas_transport(geom='atom',
                                diam=2.05,
                                well_depth=145.0))

species(name='O(7)',
        atoms='O:1',
        thermo=(NASA([100.00, 3598.68],
                     [ 2.50000000E+00, -1.84483083E-15,  2.71425215E-18,
                      -1.30027816E-21,  1.91033296E-25,  2.92302441E+04,
                       5.12616427E+00]),
                NASA([3598.68, 5000.00],
                     [ 2.50000000E+00, -2.82484701E-12,  1.07036546E-15,
                      -1.78887662E-19,  1.11248406E-23,  2.92302441E+04,
                       5.12616426E+00])),
        transport=gas_transport(geom='atom',
                                diam=2.75,
                                well_depth=80.0))

species(name='H2(8)',
        atoms='H:2',
        thermo=(NASA([100.00, 1959.07],
                     [ 3.43536405E+00,  2.12710954E-04, -2.78626405E-07,
                       3.40268235E-10, -7.76034644E-14, -1.03135984E+03,
                      -3.90841705E+00]),
                NASA([1959.07, 5000.00],
                     [ 2.78817306E+00,  5.87631545E-04,  1.59014816E-07,
                      -5.52747855E-11,  4.34317420E-15, -5.96148537E+02,
                       1.12689783E-01])),
        transport=gas_transport(geom='linear',
                                diam=2.833,
                                well_depth=59.7))

species(name='HO2(9)',
        atoms='H:1 O:2',
        thermo=(NASA([200.00, 1000.00],
                     [ 4.30180000E+00, -4.74912000E-03,  2.11583000E-05,
                      -2.42764000E-08,  9.29225000E-12,  2.64018000E+02,
                       3.71666000E+00]),
                NASA([1000.00, 5000.00],
                     [ 4.17229000E+00,  1.88118000E-03, -3.46277000E-07,
                       1.94658000E-11,  1.76257000E-16,  3.10207000E+01,
                       2.95768000E+00])),
        transport=gas_transport(geom='nonlinear',
                                diam=3.458,
                                well_depth=107.4,
                                rot_relax=1.0))

species(name='H2O2(10)',
        atoms='H:2 O:2',
        thermo=(NASA([200.00, 1000.00],
                     [ 4.31515000E+00, -8.47391000E-04,  1.76404000E-05,
                      -2.26763000E-08,  9.08950000E-12, -1.77067000E+04,
                       3.27373000E+00]),
                NASA([1000.00, 6000.00],
                     [ 4.57977000E+00,  4.05326000E-03, -1.29845000E-06,
                       1.98211000E-10, -1.13969000E-14, -1.80072000E+04,
                       6.64971000E-01])),
        transport=gas_transport(geom='nonlinear',
                                diam=4.196,
                                well_depth=289.3))

species(name='CO(11)',
        atoms='C:1 O:1',
        thermo=(NASA([100.00, 1571.64],
                     [ 3.56837976E+00, -8.52123452E-04,  2.48917230E-06,
                      -1.56330523E-09,  3.13593773E-13, -1.42842549E+04,
                       3.57912263E+00]),
                NASA([1571.64, 5000.00],
                     [ 2.91307187E+00,  1.64657103E-03, -6.88611376E-07,
                       1.21036622E-10, -7.84012380E-15, -1.41808873E+04,
                       6.71042732E+00])),
        transport=gas_transport(geom='linear',
                                diam=3.69,
                                well_depth=91.7,
                                polar=1.76,
                                rot_relax=4.0))

species(name='CO2(12)',
        atoms='C:1 O:2',
        thermo=(NASA([200.00, 1000.00],
                     [ 2.35681000E+00,  8.98413000E-03, -7.12206000E-06,
                       2.45730000E-09, -1.42885000E-13, -4.83720000E+04,
                       9.90090000E+00]),
                NASA([1000.00, 6000.00],
                     [ 4.63651000E+00,  2.74146000E-03, -9.95898000E-07,
                       1.60387000E-10, -9.16199000E-15, -4.90249000E+04,
                      -1.93490000E+00])),
        transport=gas_transport(geom='linear',
                                diam=3.941,
                                well_depth=195.201))

species(name='HCO(13)',
        atoms='C:1 H:1 O:1',
        thermo=(NASA([200.00, 1000.00],
                     [ 4.23755000E+00, -3.32075000E-03,  1.40030000E-05,
                      -1.34240000E-08,  4.37416000E-12,  3.87241000E+03,
                       3.30835000E+00]),
                NASA([1000.00, 6000.00],
                     [ 3.92002000E+00,  2.52279000E-03, -6.71004000E-07,
                       1.05616000E-10, -7.43798000E-15,  3.65343000E+03,
                       3.58077000E+00])),
        transport=gas_transport(geom='nonlinear',
                                diam=3.59,
                                well_depth=498.002))

species(name='CH(14)',
        atoms='C:1 H:1',
        thermo=(NASA([200.00, 1000.00],
                     [ 3.48976000E+00,  3.24322000E-04, -1.68998000E-06,
                       3.16284000E-09, -1.40618000E-12,  7.06126000E+04,
                       2.08428000E+00]),
                NASA([1000.00, 6000.00],
                     [ 2.52094000E+00,  1.76536000E-03, -4.61477000E-07,
                       5.92897000E-11, -3.34745000E-15,  7.09468000E+04,
                       7.40518000E+00])),
        transport=gas_transport(geom='linear',
                                diam=2.75,
                                well_depth=80.0))

species(name='CH2(T)(15)',
        atoms='C:1 H:2',
        thermo=(NASA([100.00, 1104.56],
                     [ 4.01192396E+00, -1.54979597E-04,  3.26298067E-06,
                      -2.40422068E-09,  5.69497568E-13,  4.58676802E+04,
                       5.33200175E-01]),
                NASA([1104.56, 5000.00],
                     [ 3.14983430E+00,  2.96674180E-03, -9.76055359E-07,
                       1.54115160E-10, -9.50337094E-15,  4.60581389E+04,
                       4.77807430E+00])),
        transport=gas_transport(geom='nonlinear',
                                diam=3.8,
                                well_depth=144.001))

species(name='CH3(16)',
        atoms='C:1 H:3',
        thermo=(NASA([200.00, 1000.00],
                     [ 3.65718000E+00,  2.12660000E-03,  5.45839000E-06,
                      -6.61810000E-09,  2.46571000E-12,  1.64227000E+04,
                       1.67354000E+00]),
                NASA([1000.00, 6000.00],
                     [ 2.97812000E+00,  5.79785000E-03, -1.97558000E-06,
                       3.07298000E-10, -1.79174000E-14,  1.65095000E+04,
                       4.72248000E+00])),
        transport=gas_transport(geom='nonlinear',
                                diam=3.8,
                                well_depth=144.001))

species(name='CH2O(17)',
        atoms='C:1 H:2 O:1',
        thermo=(NASA([200.00, 1000.00],
                     [ 4.79372000E+00, -9.90833000E-03,  3.73220000E-05,
                      -3.79285000E-08,  1.31773000E-11, -1.43792000E+04,
                       6.02798000E-01]),
                NASA([1000.00, 6000.00],
                     [ 3.16953000E+00,  6.19321000E-03, -2.25056000E-06,
                       3.65976000E-10, -2.20149000E-14, -1.45487000E+04,
                       6.04208000E+00])),
        transport=gas_transport(geom='nonlinear',
                                diam=3.59,
                                well_depth=498.002,
                                rot_relax=2.0))

species(name='HCCO(18)',
        atoms='C:2 H:1 O:1',
        thermo=(NASA([200.00, 1000.00],
                     [ 1.87608000E+00,  2.21205000E-02, -3.58869000E-05,
                       3.05403000E-08, -1.01281000E-11,  2.01634000E+04,
                       1.36968000E+01]),
                NASA([1000.00, 6000.00],
                     [ 5.91479000E+00,  3.71409000E-03, -1.30137000E-06,
                       2.06473000E-10, -1.21477000E-14,  1.93596000E+04,
                      -5.50567000E+00])),
        transport=gas_transport(geom='nonlinear',
                                diam=2.5,
                                well_depth=150.001,
                                rot_relax=1.0))

species(name='C2H(19)',
        atoms='C:2 H:1',
        thermo=(NASA([200.00, 1000.00],
                     [ 2.89868000E+00,  1.32988000E-02, -2.80733000E-05,
                       2.89485000E-08, -1.07502000E-11,  6.70616000E+04,
                       6.18548000E+00]),
                NASA([1000.00, 6000.00],
                     [ 3.66270000E+00,  3.82492000E-03, -1.36633000E-06,
                       2.13455000E-10, -1.23217000E-14,  6.71684000E+04,
                       3.92206000E+00])),
        transport=gas_transport(geom='linear',
                                diam=4.1,
                                well_depth=209.001,
                                rot_relax=2.5))

species(name='C2H2(20)',
        atoms='C:2 H:2',
        thermo=(NASA([200.00, 1000.00],
                     [ 8.08680000E-01,  2.33616000E-02, -3.55172000E-05,
                       2.80153000E-08, -8.50075000E-12,  2.64290000E+04,
                       1.39397000E+01]),
                NASA([1000.00, 6000.00],
                     [ 4.65878000E+00,  4.88397000E-03, -1.60829000E-06,
                       2.46975000E-10, -1.38606000E-14,  2.57594000E+04,
                      -3.99838000E+00])),
        transport=gas_transport(geom='linear',
                                diam=4.1,
                                well_depth=209.001,
                                rot_relax=2.5))

species(name='H2CC(21)',
        atoms='C:2 H:2',
        thermo=(NASA([200.00, 1000.00],
                     [ 3.28155000E+00,  6.97643000E-03, -2.38528000E-06,
                      -1.21078000E-09,  9.82042000E-13,  4.83192000E+04,
                       5.92036000E+00]),
                NASA([1000.00, 6000.00],
                     [ 4.27807000E+00,  4.75623000E-03, -1.63007000E-06,
                       2.54623000E-10, -1.48860000E-14,  4.80140000E+04,
                       6.39979000E-01])),
        transport=gas_transport(geom='nonlinear',
                                diam=4.1,
                                well_depth=209.0,
                                rot_relax=2.5))

species(name='CH2(S)(22)',
        atoms='C:1 H:2',
        thermo=(NASA([100.00, 1442.35],
                     [ 4.10264395E+00, -1.44068619E-03,  5.45069573E-06,
                      -3.58002683E-09,  7.56194814E-13,  5.04005785E+04,
                      -4.11766577E-01]),
                NASA([1442.35, 5000.00],
                     [ 2.62646849E+00,  3.94763740E-03, -1.49924559E-06,
                       2.54540076E-10, -1.62956554E-14,  5.06917560E+04,
                       6.78382272E+00])),
        transport=gas_transport(geom='nonlinear',
                                diam=3.8,
                                well_depth=144.001))

species(name='CH3O(23)',
        atoms='C:1 H:3 O:1',
        thermo=(NASA([200.00, 1000.00],
                     [ 3.71181000E+00, -2.80463000E-03,  3.76551000E-05,
                      -4.73072000E-08,  1.86588000E-11,  1.29570000E+03,
                       6.57241000E+00]),
                NASA([1000.00, 6000.00],
                     [ 4.75779000E+00,  7.44142000E-03, -2.69705000E-06,
                       4.38091000E-10, -2.63537000E-14,  3.78112000E+02,
                      -1.96680000E+00])),
        transport=gas_transport(geom='nonlinear',
                                diam=3.69,
                                well_depth=417.002,
                                dipole=1.7,
                                rot_relax=2.0))

species(name='CH2CO(24)',
        atoms='C:2 H:2 O:1',
        thermo=(NASA([200.00, 1000.00],
                     [ 2.13241000E+00,  1.81319000E-02, -1.74093000E-05,
                       9.35336000E-09, -2.01725000E-12, -7.14809000E+03,
                       1.33808000E+01]),
                NASA([1000.00, 6000.00],
                     [ 5.75871000E+00,  6.35124000E-03, -2.25955000E-06,
                       3.62322000E-10, -2.15856000E-14, -8.08533000E+03,
                      -4.96490000E+00])),
        transport=gas_transport(geom='nonlinear',
                                diam=3.97,
                                well_depth=436.001,
                                rot_relax=2.0))

species(name='C2H3(25)',
        atoms='C:2 H:3',
        thermo=(NASA([200.00, 1000.00],
                     [ 3.36378000E+00,  2.65766000E-04,  2.79621000E-05,
                      -3.72987000E-08,  1.51590000E-11,  3.44750000E+04,
                       7.91510000E+00]),
                NASA([1000.00, 6000.00],
                     [ 4.15027000E+00,  7.54021000E-03, -2.62998000E-06,
                       4.15974000E-10, -2.45408000E-14,  3.38566000E+04,
                       1.72812000E+00])),
        transport=gas_transport(geom='nonlinear',
                                diam=4.1,
                                well_depth=209.001,
                                rot_relax=1.0))

species(name='C2H4(26)',
        atoms='C:2 H:4',
        thermo=(NASA([200.00, 1000.00],
                     [ 3.95920000E+00, -7.57051000E-03,  5.70990000E-05,
                      -6.91588000E-08,  2.69884000E-11,  5.08978000E+03,
                       4.09730000E+00]),
                NASA([1000.00, 6000.00],
                     [ 3.99183000E+00,  1.04834000E-02, -3.71721000E-06,
                       5.94628000E-10, -3.53630000E-14,  4.26866000E+03,
                      -2.69082000E-01])),
        transport=gas_transport(geom='nonlinear',
                                diam=3.971,
                                well_depth=280.801,
                                rot_relax=1.5))

species(name='C2H6(27)',
        atoms='C:2 H:6',
        thermo=(NASA([200.00, 1000.00],
                     [ 4.29143000E+00, -5.50155000E-03,  5.99438000E-05,
                      -7.08466000E-08,  2.68686000E-11, -1.15222000E+04,
                       2.66679000E+00]),
                NASA([1000.00, 6000.00],
                     [ 4.04666000E+00,  1.53539000E-02, -5.47039000E-06,
                       8.77827000E-10, -5.23168000E-14, -1.24473000E+04,
                      -9.68698000E-01])),
        transport=gas_transport(geom='nonlinear',
                                diam=4.302,
                                well_depth=252.301,
                                rot_relax=1.5))

species(name='C2H5(28)',
        atoms='C:2 H:5',
        thermo=(NASA([200.00, 1000.00],
                     [ 4.24186000E+00, -3.56905000E-03,  4.82667000E-05,
                      -5.85401000E-08,  2.25805000E-11,  1.29690000E+04,
                       4.44704000E+00]),
                NASA([1000.00, 6000.00],
                     [ 4.32196000E+00,  1.23931000E-02, -4.39681000E-06,
                       7.03520000E-10, -4.18435000E-14,  1.21759000E+04,
                       1.71104000E-01])),
        transport=gas_transport(geom='nonlinear',
                                diam=4.302,
                                well_depth=252.301,
                                rot_relax=1.5))

species(name='CH2OH(29)',
        atoms='C:1 H:3 O:1',
        thermo=(NASA([200.00, 1000.00],
                     [ 4.47834000E+00, -1.35070000E-03,  2.78485000E-05,
                      -3.64869000E-08,  1.47907000E-11, -3.50073000E+03,
                       3.30913000E+00]),
                NASA([1000.00, 6000.00],
                     [ 5.09314000E+00,  5.94761000E-03, -2.06497000E-06,
                       3.23008000E-10, -1.88126000E-14, -4.03410000E+03,
                      -1.84691000E+00])),
        transport=gas_transport(geom='nonlinear',
                                diam=3.69,
                                well_depth=417.002,
                                dipole=1.7,
                                rot_relax=2.0))

species(name='CH3CO(30)',
        atoms='C:2 H:3 O:1',
        thermo=(NASA([200.00, 1000.00],
                     [ 4.03587000E+00,  8.77295000E-04,  3.07100000E-05,
                      -3.92476000E-08,  1.52969000E-11, -2.68207000E+03,
                       7.86177000E+00]),
                NASA([1000.00, 6000.00],
                     [ 5.31372000E+00,  9.17378000E-03, -3.32204000E-06,
                       5.39475000E-10, -3.24524000E-14, -3.64504000E+03,
                      -1.67576000E+00])),
        transport=gas_transport(geom='nonlinear',
                                diam=3.97,
                                well_depth=436.001,
                                rot_relax=2.0))

species(name='F(31)',
        atoms='F:1',
        thermo=(NASA([298.00, 1400.00],
                     [ 2.90371000E+00, -6.35296000E-04,  2.64735000E-07,
                       7.69063000E-11, -5.45254000E-14,  8.67227000E+03,
                       2.70828000E+00]),
                NASA([1400.00, 3000.00],
                     [ 2.65117000E+00, -1.40130000E-04,  5.19236000E-08,
                      -8.84954000E-12,  5.90280000E-16,  8.75829000E+03,
                       4.07857000E+00])),
        transport=gas_transport(geom='atom',
                                diam=2.75,
                                well_depth=80.0))

species(name='HF(32)',
        atoms='F:1 H:1',
        thermo=(NASA([298.00, 1250.00],
                     [ 3.43657000E+00,  4.86021000E-04, -1.25240000E-06,
                       1.36475000E-09, -4.09574000E-13, -3.38001000E+04,
                       1.20682000E+00]),
                NASA([1250.00, 3000.00],
                     [ 2.78130000E+00,  1.03959000E-03, -2.41735000E-07,
                       2.68416000E-11, -1.09766000E-15, -3.35042000E+04,
                       5.01970000E+00])),
        transport=gas_transport(geom='linear',
                                diam=3.148,
                                well_depth=330.001,
                                dipole=1.92,
                                polar=2.46,
                                rot_relax=1.0))

species(name='CH3F(33)',
        atoms='C:1 F:1 H:3',
        thermo=(NASA([10.00, 534.71],
                     [ 4.05191000E+00, -3.40134000E-03,  1.73410000E-05,
                       2.49456000E-09, -1.51790000E-11, -2.96051000E+04,
                       3.91759000E+00]),
                NASA([534.71, 3000.00],
                     [ 4.87074000E-01,  1.43029000E-02, -7.17972000E-06,
                       1.71680000E-09, -1.57925000E-13, -2.90957000E+04,
                       2.00824000E+01])),
        transport=gas_transport(geom='nonlinear',
                                diam=4.123,
                                well_depth=262.0,
                                dipole=1.8))

species(name='CHF(34)',
        atoms='C:1 F:1 H:1',
        thermo=(NASA([298.00, 1300.00],
                     [ 3.34484000E+00,  2.35461000E-03,  1.93983000E-06,
                      -2.65251000E-09,  7.91169000E-13,  1.67661000E+04,
                       7.05286000E+00]),
                NASA([1300.00, 3000.00],
                     [ 4.48366000E+00,  1.74964000E-03, -5.04790000E-07,
                       1.08953000E-10, -9.87898000E-15,  1.62102000E+04,
                       2.89222000E-01])),
        transport=gas_transport(geom='nonlinear',
                                diam=4.123,
                                well_depth=262.0,
                                dipole=1.8))

species(name='CH2F2(35)',
        atoms='C:1 F:2 H:2',
        thermo=(NASA([10.00, 788.98],
                     [ 4.06909000E+00, -4.54455000E-03,  4.03365000E-05,
                      -4.87809000E-08,  1.90230000E-11, -5.55551000E+04,
                       6.40435000E+00]),
                NASA([788.98, 3000.00],
                     [ 1.30655000E+00,  1.54345000E-02, -9.00408000E-06,
                       2.50681000E-09, -2.68973000E-13, -5.53051000E+04,
                       1.78990000E+01])),
        transport=gas_transport(geom='nonlinear',
                                diam=4.123,
                                well_depth=262.0,
                                dipole=1.8))

species(name='CH2F(36)',